
 ANSYS Academic Teaching Introductory              


 *------------------------------------------------------------------*
 |                                                                  |
 |   W E L C O M E   T O   T H E   A N S Y S (R)  P R O G R A M     |
 |                                                                  |
 *------------------------------------------------------------------*




 ***************************************************************
 *            ANSYS Release 19.2     LEGAL NOTICES             *
 ***************************************************************
 *                                                             *
 * Copyright 1971-2018 ANSYS, Inc.  All rights reserved.       *
 * Unauthorized use, distribution or duplication is            *
 * prohibited.                                                 *
 *                                                             *
 * Ansys is a registered trademark of ANSYS, Inc. or its       *
 * subsidiaries in the United States or other countries.       *
 * See the ANSYS, Inc. online documentation or the ANSYS, Inc. *
 * documentation CD or online help for the complete Legal      *
 * Notice.                                                     *
 *                                                             *
 ***************************************************************
 *                                                             *
 * THIS ANSYS SOFTWARE PRODUCT AND PROGRAM DOCUMENTATION       *
 * INCLUDE TRADE SECRETS AND CONFIDENTIAL AND PROPRIETARY      *
 * PRODUCTS OF ANSYS, INC., ITS SUBSIDIARIES, OR LICENSORS.    *
 * The software products and documentation are furnished by    *
 * ANSYS, Inc. or its subsidiaries under a software license    *
 * agreement that contains provisions concerning               *
 * non-disclosure, copying, length and nature of use,          *
 * compliance with exporting laws, warranties, disclaimers,    *
 * limitations of liability, and remedies, and other           *
 * provisions.  The software products and documentation may be *
 * used, disclosed, transferred, or copied only in accordance  *
 * with the terms and conditions of that software license      *
 * agreement.                                                  *
 *                                                             *
 * ANSYS, Inc. is a UL registered                              *
 * ISO 9001:2008 company.                                      *
 *                                                             *
 ***************************************************************
 *                                                             *
 * This product is subject to U.S. laws governing export and   *
 * re-export.                                                  *
 *                                                             *
 * For U.S. Government users, except as specifically granted   *
 * by the ANSYS, Inc. software license agreement, the use,     *
 * duplication, or disclosure by the United States Government  *
 * is subject to restrictions stated in the ANSYS, Inc.        *
 * software license agreement and FAR 12.212 (for non-DOD      *
 * licenses).                                                  *
 *                                                             *
 ***************************************************************

 Release 19.2
     
 Point Releases and Patches installed:   
     
 Academic Student Release 19.2   
 FENSAP-ICE Release 19.2 


          *****  ANSYS COMMAND LINE ARGUMENTS  *****
  BATCH MODE REQUESTED (-b)    = NOLIST
  INPUT FILE COPY MODE (-c)    = COPY
  DISTRIBUTED MEMORY PARALLEL REQUESTED
       2 PARALLEL PROCESSES REQUESTED WITH SINGLE THREAD PER PROCESS
    TOTAL OF     2 CORES REQUESTED
  DESIGNXPLORER REQUESTED
  MPI OPTION                   = INTELMPI
  INPUT FILE NAME              = C:\Users\Satan\AppData\Local\Temp\WB_SATAN-PC_Satan_6516_2\_ProjectScratch\ScrC011\dummy.dat
  OUTPUT FILE NAME             = C:\Users\Satan\AppData\Local\Temp\WB_SATAN-PC_Satan_6516_2\_ProjectScratch\ScrC011\solve.out
  START-UP FILE MODE           = NOREAD
  STOP FILE MODE               = NOREAD

 RELEASE= Release 19.2         BUILD= 19.2      UP20180808   VERSION=WINDOWS x64 
 CURRENT JOBNAME=file0  21:52:47  JAN 29, 2019 CP=      0.328


 PARAMETER _DS_PROGRESS =     999.0000000    

 /INPUT FILE= ds.dat  LINE=       0



 *** NOTE ***                            CP =       0.624   TIME= 21:52:48
 The /CONFIG,NOELDB command is not valid in a Distributed ANSYS          
 solution.  Command is ignored.                                          

 *GET  _WALLSTRT  FROM  ACTI  ITEM=TIME WALL  VALUE=  21.8800000    

 TITLE= 
 unsaved_project--Transient Thermal (A5)                                       


 SET PARAMETER DIMENSIONS ON  _WB_PROJECTSCRATCH_DIR
  TYPE=STRI  DIMENSIONS=      248        1        1

 PARAMETER _WB_PROJECTSCRATCH_DIR(1) = C:\Users\Satan\AppData\Local\Temp\WB_SATAN-PC_Satan_6516_2\_ProjectScratch\ScrC011\

 SET PARAMETER DIMENSIONS ON  _WB_SOLVERFILES_DIR
  TYPE=STRI  DIMENSIONS=      248        1        1

 PARAMETER _WB_SOLVERFILES_DIR(1) = C:\Users\Satan\AppData\Local\Temp\WB_SATAN-PC_Satan_6516_2\unsaved_project_files\dp0\SYS\MECH\

 SET PARAMETER DIMENSIONS ON  _WB_USERFILES_DIR
  TYPE=STRI  DIMENSIONS=      248        1        1

 PARAMETER _WB_USERFILES_DIR(1) = C:\Users\Satan\AppData\Local\Temp\WB_SATAN-PC_Satan_6516_2\unsaved_project_files\user_files\
 --- Data in consistent CGS units. See Solving Units in the help system for more

 CGS UNITS SPECIFIED FOR INTERNAL    
  LENGTH      = CENTIMETERS (CM)
  MASS        = GRAMS (G)
  TIME        = SECONDS (SEC)
  TEMPERATURE = CELSIUS (C)
  TOFFSET     = 273.0
  FORCE       = DYNES
  HEAT        = ERG
  ENERGY      = ERG

 INPUT  UNITS ARE ALSO SET TO CGS 

 *** ANSYS - ENGINEERING ANALYSIS SYSTEM  RELEASE Release 19.2     19.2     ***
 DISTRIBUTED ANSYS Academic Teaching Introductory              

 01055371  VERSION=WINDOWS x64   21:52:48  JAN 29, 2019 CP=      0.624

 unsaved_project--Transient Thermal (A5)                                       



          ***** ANSYS ANALYSIS DEFINITION (PREP7) *****
 *********** Nodes for the whole assembly ***********
 *********** Elements for Body 1 "SYS\Surface" ***********
 *********** Send User Defined Coordinate System(s) ***********
 *********** Send Materials ***********
 *********** Send Sheet Properties ***********
 *********** Create "Heat Flux" ***********
 *********** Create "Heat Flux 2" ***********
 *********** Create "ToAmbient" Radiation ***********
 ***************** Define Uniform Initial temperature ***************


 ***** ROUTINE COMPLETED *****  CP =         0.811


 --- Number of total nodes = 12630
 --- Number of contact elements = 1182
 --- Number of spring elements = 0
 --- Number of bearing elements = 0
 --- Number of solid elements = 3940
 --- Number of condensed parts = 0
 --- Number of total elements = 5122

 *GET  _WALLBSOL  FROM  ACTI  ITEM=TIME WALL  VALUE=  21.8800000    
 ****************************************************************************
 *************************    SOLUTION       ********************************
 ****************************************************************************

 *****  ANSYS SOLUTION ROUTINE  *****


 PERFORM A TRANSIENT ANALYSIS
  THIS WILL BE A NEW ANALYSIS

 STEP BOUNDARY CONDITION KEY= 1

 CONTACT INFORMATION PRINTOUT LEVEL       1

 DO NOT SAVE ANY RESTART FILES AT ALL

 DO NOT COMBINE ELEMENT MATRIX FILES (.emat) AFTER DISTRIBUTED PARALLEL SOLUTION

 DO NOT COMBINE ELEMENT SAVE DATA FILES (.esav) AFTER DISTRIBUTED PARALLEL SOLUTION

 Use Full Nonlinear Thermal Transient Solution

 NLHIST: ADDED NODAL RESULTS HISTORY FOR:
       NAME = MAX_TEMP                        
  ITEM/COMP = TEMPMAX 
       NODE =         0

 NLHIST: ADDED NODAL RESULTS HISTORY FOR:
       NAME = MIN_TEMP                        
  ITEM/COMP = TEMPMIN 
       NODE =         0
 ********* Initial Time Increment Check And Fourier Modulus *********
  Specified Initial Time Increment: 0.01
  Estimated Increment Needed, le*le/alpha, Body 1: 0.00385178
 ****************************************************
 ******************* SOLVE FOR LS 1 OF 300 ****************

 SELECT       FOR ITEM=TYPE COMPONENT=    
  IN RANGE         2 TO          2 STEP          1

        394  ELEMENTS (OF       5122  DEFINED) SELECTED BY  ESEL  COMMAND.

 SELECT      ALL NODES HAVING ANY ELEMENT IN ELEMENT SET.

        789 NODES (OF      12630  DEFINED) SELECTED FROM
      394 SELECTED ELEMENTS BY NSLE COMMAND.

 GENERATE SURFACE LOAD HFLU ON SURFACE DEFINED BY ALL SELECTED NODES
 VALUE =   1400000.00    

 NUMBER OF HFLU ELEMENT FACE LOADS STORED =        394

 SELECT       FOR ITEM=TYPE COMPONENT=    
  IN RANGE         3 TO          3 STEP          1

        394  ELEMENTS (OF       5122  DEFINED) SELECTED BY  ESEL  COMMAND.

 SELECT      ALL NODES HAVING ANY ELEMENT IN ELEMENT SET.

        789 NODES (OF      12630  DEFINED) SELECTED FROM
      394 SELECTED ELEMENTS BY NSLE COMMAND.

 GENERATE SURFACE LOAD HFLU ON SURFACE DEFINED BY ALL SELECTED NODES
 VALUE =   150000.000    

 NUMBER OF HFLU ELEMENT FACE LOADS STORED =        394

 ALL SELECT   FOR ITEM=NODE COMPONENT=    
  IN RANGE         1 TO      12630 STEP          1

      12630  NODES (OF      12630  DEFINED) SELECTED BY NSEL  COMMAND.

 ALL SELECT   FOR ITEM=ELEM COMPONENT=    
  IN RANGE         1 TO       5122 STEP          1

       5122  ELEMENTS (OF       5122  DEFINED) SELECTED BY  ESEL  COMMAND.

 SPECIFIED CONSTRAINT TEMP FOR PICKED NODES 
 REAL= -269.150000       IMAG=  0.00000000    

 USE AUTOMATIC TIME STEPPING THIS LOAD STEP

 USE     100 SUBSTEPS INITIALLY THIS LOAD STEP FOR ALL  DEGREES OF FREEDOM
 FOR AUTOMATIC TIME STEPPING:
   USE   1000 SUBSTEPS AS A MAXIMUM
   USE     10 SUBSTEPS AS A MINIMUM

 TIME=  1.0000    

 INCLUDE TRANSIENT EFFECTS FOR  ALL DEGREES OF FREEDOM THIS LOAD STEP

 ERASE THE CURRENT DATABASE OUTPUT CONTROL TABLE.


 WRITE ALL  ITEMS TO THE DATABASE WITH A FREQUENCY OF NONE
   FOR ALL APPLICABLE ENTITIES

 WRITE NSOL ITEMS TO THE DATABASE WITH A FREQUENCY OF ALL 
   FOR ALL APPLICABLE ENTITIES

 WRITE RSOL ITEMS TO THE DATABASE WITH A FREQUENCY OF ALL 
   FOR ALL APPLICABLE ENTITIES

 WRITE FFLU ITEMS TO THE DATABASE WITH A FREQUENCY OF ALL 
   FOR ALL APPLICABLE ENTITIES

 PRINTOUT RESUMED BY /GOP

 WRITE MISC ITEMS TO THE DATABASE WITH A FREQUENCY OF ALL 
   FOR THE ENTITIES DEFINED BY COMPONENT _ELMISC 

 CONVERGENCE ON HEAT BASED ON THE NORM OF THE N-R LOAD
   WITH A TOLERANCE OF 0.1000E-02 AND A MINIMUM REFERENCE VALUE OF  10.00    
   USING THE L2 NORM (CHECK THE SRSS VALUE)

 *GET  ANSINTER_  FROM  ACTI  ITEM=INT        VALUE=  0.00000000    

 *IF  ANSINTER_                         ( =   0.00000     )  NE  
      0                                 ( =   0.00000     )  THEN    

 *ENDIF

 *** NOTE ***                            CP =       0.920   TIME= 21:52:48
 The automatic domain decomposition logic has selected the MESH domain   
 decomposition method with 2 processes per solution.                     

 *****  ANSYS SOLVE    COMMAND  *****

 *** WARNING ***                         CP =       0.920   TIME= 21:52:48
 Element shape checking is currently inactive.  Issue SHPP,ON or         
 SHPP,WARN to reactivate, if desired.                                    

 *** NOTE ***                            CP =       0.967   TIME= 21:52:48
 The model data was checked and warning messages were found.             
  Please review output or errors file (                                  
 C:\Users\Satan\AppData\Local\Temp\WB_SATAN-PC_Satan_6516_2\_ProjectScra 
 atch\ScrC011\file0.err ) for these warning messages.                    

 *** ANSYS - ENGINEERING ANALYSIS SYSTEM  RELEASE Release 19.2     19.2     ***
 DISTRIBUTED ANSYS Academic Teaching Introductory              

 01055371  VERSION=WINDOWS x64   21:52:48  JAN 29, 2019 CP=      0.983

 unsaved_project--Transient Thermal (A5)                                       



                       S O L U T I O N   O P T I O N S

   PROBLEM DIMENSIONALITY. . . . . . . . . . . . .2-D                  
   DEGREES OF FREEDOM. . . . . . TEMP
   ANALYSIS TYPE . . . . . . . . . . . . . . . . .TRANSIENT            
      SOLUTION METHOD. . . . . . . . . . . . . . .FULL                 
   OFFSET TEMPERATURE FROM ABSOLUTE ZERO . . . . .  273.15    
   NEWTON-RAPHSON OPTION . . . . . . . . . . . . .PROGRAM CHOSEN   
   GLOBALLY ASSEMBLED MATRIX . . . . . . . . . . .SYMMETRIC  

 *** NOTE ***                            CP =       1.014   TIME= 21:52:48
 This nonlinear analysis defaults to using the full Newton-Raphson       
 solution procedure.  This can be modified using the NROPT command.      

 *** NOTE ***                            CP =       1.014   TIME= 21:52:48
 The conditions for direct assembly have been met.  No .emat or .erot    
 files will be produced.                                                 

  
  
     D I S T R I B U T E D   D O M A I N   D E C O M P O S E R
  
  ...Number of elements: 5122
  ...Number of nodes:    12630
  ...Decompose to 2 CPU domains
  ...Element load balance ratio =     1.000


                      L O A D   S T E P   O P T I O N S

   LOAD STEP NUMBER. . . . . . . . . . . . . . . .     1
   TIME AT END OF THE LOAD STEP. . . . . . . . . .  1.0000    
   AUTOMATIC TIME STEPPING . . . . . . . . . . . .    ON
      INITIAL NUMBER OF SUBSTEPS . . . . . . . . .   100
      MAXIMUM NUMBER OF SUBSTEPS . . . . . . . . .  1000
      MINIMUM NUMBER OF SUBSTEPS . . . . . . . . .    10
   MAXIMUM NUMBER OF EQUILIBRIUM ITERATIONS. . . .    15
   STEP CHANGE BOUNDARY CONDITIONS . . . . . . . .   YES
   TRANSIENT (INERTIA) EFFECTS
      THERMAL DOFS . . . . . . . . . . . . . . . .    ON
   TRANSIENT INTEGRATION PARAMETERS
      THETA. . . . . . . . . . . . . . . . . . . .  1.0000    
      OSCILLATION LIMIT CRITERION. . . . . . . . . 0.50000    
      TOLERANCE. . . . . . . . . . . . . . . . . .  0.0000    
   TERMINATE ANALYSIS IF NOT CONVERGED . . . . . .YES (EXIT)  
   CONVERGENCE CONTROLS
      LABEL   REFERENCE    TOLERANCE  NORM     MINREF
       HEAT    0.000       0.1000E-02   2      10.00    
   PRINT OUTPUT CONTROLS . . . . . . . . . . . . .NO PRINTOUT
   DATABASE OUTPUT CONTROLS
      ITEM     FREQUENCY   COMPONENT
       ALL       NONE               
      NSOL        ALL               
      RSOL        ALL               
      FFLU        ALL               
      MISC        ALL       _ELMISC 


 SOLUTION MONITORING INFO IS WRITTEN TO FILE= file.mntr                                                                                                                                                                                                                                                           




            **** CENTER OF MASS, MASS, AND MASS MOMENTS OF INERTIA ****

  CALCULATIONS ASSUME ELEMENT MASS AT ELEMENT CENTROID

  TOTAL MASS =   271.00    

                           MOM. OF INERTIA         MOM. OF INERTIA
  CENTER OF MASS            ABOUT ORIGIN        ABOUT CENTER OF MASS

  XC =  0.25000          IXX =   0.3613E+05      IXX =    9033.    
  YC =   10.000          IYY =    22.53          IYY =    5.589    
  ZC =   0.0000          IZZ =   0.3616E+05      IZZ =    9039.    
                         IXY =   -677.5          IXY =   0.8436E-09
                         IYZ =    0.000          IYZ =    0.000    
                         IZX =    0.000          IZX =    0.000    


  *** MASS SUMMARY BY ELEMENT TYPE ***

  TYPE      MASS
     1   271.000    

 Range of element maximum matrix coefficients in global coordinates
 Maximum = 372918044 at element 2956.                                    
 Minimum = 2931.05223 at element 4729.                                   

   *** ELEMENT MATRIX FORMULATION TIMES
     TYPE    NUMBER   ENAME      TOTAL CP  AVE CP

        1      3940  PLANE77       0.187   0.000048
        2       394  SURF151       0.000   0.000000
        3       394  SURF151       0.031   0.000079
        4       394  SURF151       0.047   0.000119
 Time at end of element matrix formulation CP = 1.37280881.              
     HT FLOW CONVERGENCE VALUE=  0.2502E+07  CRITERION=   2502.    

 DISTRIBUTED SPARSE MATRIX DIRECT SOLVER.
  Number of equations =       12629,    Maximum wavefront =     18

  Local memory allocated for solver              =     13.404 MB
  Local memory required for in-core solution     =      5.573 MB
  Local memory required for out-of-core solution =      3.274 MB

  Total memory allocated for solver              =     26.789 MB
  Total memory required for in-core solution     =     11.129 MB
  Total memory required for out-of-core solution =      6.541 MB

 *** NOTE ***                            CP =       1.560   TIME= 21:52:48
 The Distributed Sparse Matrix Solver is currently running in the        
 in-core memory mode.  This memory mode uses the most amount of memory   
 in order to avoid using the hard drive as much as possible, which most  
 often results in the fastest solution time.  This mode is recommended   
 if enough physical memory is present to accommodate all of the solver   
 data.                                                                   
 Distributed sparse solver maximum pivot= 767755741 at node 10494 TEMP.  
 Distributed sparse solver minimum pivot= 186925811 at node 4 TEMP.      
 Distributed sparse solver minimum pivot in absolute value= 186925811 at 
 node 4 TEMP.                                                            
    EQUIL ITER   1 COMPLETED.  NEW TRIANG MATRIX.  MAX DOF INC=  -291.2    
     HT FLOW CONVERGENCE VALUE=  0.9516E+07  CRITERION=  0.1945E+05
    EQUIL ITER   2 COMPLETED.  NEW TRIANG MATRIX.  MAX DOF INC=  0.6429E-02
     HT FLOW CONVERGENCE VALUE=  0.9198E-02  CRITERION=  0.1891E+05 <<< CONVERGED
    >>> SOLUTION CONVERGED AFTER EQUILIBRIUM ITERATION   2

   *** ELEMENT RESULT CALCULATION TIMES
     TYPE    NUMBER   ENAME      TOTAL CP  AVE CP

        1      3940  PLANE77       0.187   0.000048
        2       394  SURF151       0.000   0.000000
        3       394  SURF151       0.016   0.000040
        4       394  SURF151       0.016   0.000040

   *** NODAL LOAD CALCULATION TIMES
     TYPE    NUMBER   ENAME      TOTAL CP  AVE CP

        1      3940  PLANE77       0.047   0.000012
        2       394  SURF151       0.000   0.000000
        3       394  SURF151       0.000   0.000000
        4       394  SURF151       0.000   0.000000
 *** LOAD STEP     1   SUBSTEP     1  COMPLETED.    CUM ITER =      2
 *** TIME =  0.100000E-01     TIME INC =  0.100000E-01
 *** RESPONSE EIGENVALUE =  487.1       OSCILLATION LIMIT =  4.871    
 *** AUTO TIME STEP:  NEXT TIME INC = 0.33333E-02  DECREASED (FACTOR = 0.3333)

     HT FLOW CONVERGENCE VALUE=  0.5053E+07  CRITERION=  0.1913E+05
    EQUIL ITER   1 COMPLETED.  NEW TRIANG MATRIX.  MAX DOF INC=  0.1042E-02
     HT FLOW CONVERGENCE VALUE=  0.2839E-03  CRITERION=  0.1907E+05 <<< CONVERGED
    >>> SOLUTION CONVERGED AFTER EQUILIBRIUM ITERATION   1
 *** LOAD STEP     1   SUBSTEP     2  COMPLETED.    CUM ITER =      3
 *** TIME =  0.133333E-01     TIME INC =  0.333333E-02
 *** RESPONSE EIGENVALUE =  30.78       OSCILLATION LIMIT = 0.1026    
 *** AUTO STEP TIME:  NEXT TIME INC = 0.33333E-02  UNCHANGED

     HT FLOW CONVERGENCE VALUE=  0.4658E+07  CRITERION=  0.1913E+05
    EQUIL ITER   1 COMPLETED.  NEW TRIANG MATRIX.  MAX DOF INC=  0.8516E-03
     HT FLOW CONVERGENCE VALUE=  0.2181E-03  CRITERION=  0.1911E+05 <<< CONVERGED
    >>> SOLUTION CONVERGED AFTER EQUILIBRIUM ITERATION   1
 *** LOAD STEP     1   SUBSTEP     3  COMPLETED.    CUM ITER =      4
 *** TIME =  0.166667E-01     TIME INC =  0.333333E-02
 *** RESPONSE EIGENVALUE =  18.99       OSCILLATION LIMIT = 0.6328E-01
 *** AUTO TIME STEP:  NEXT TIME INC = 0.10000E-01  INCREASED (FACTOR = 3.0000)

     HT FLOW CONVERGENCE VALUE=  0.4399E+07  CRITERION=  0.1913E+05
    EQUIL ITER   1 COMPLETED.  NEW TRIANG MATRIX.  MAX DOF INC=  0.1941E-02
     HT FLOW CONVERGENCE VALUE=  0.8505E-03  CRITERION=  0.1915E+05 <<< CONVERGED
    >>> SOLUTION CONVERGED AFTER EQUILIBRIUM ITERATION   1
 *** LOAD STEP     1   SUBSTEP     4  COMPLETED.    CUM ITER =      5
 *** TIME =  0.266667E-01     TIME INC =  0.100000E-01
 *** RESPONSE EIGENVALUE =  8.813       OSCILLATION LIMIT = 0.8813E-01
 *** AUTO TIME STEP:  NEXT TIME INC = 0.30000E-01  INCREASED (FACTOR = 3.0000)

     HT FLOW CONVERGENCE VALUE=  0.4022E+07  CRITERION=  0.1913E+05
    EQUIL ITER   1 COMPLETED.  NEW TRIANG MATRIX.  MAX DOF INC=  0.4175E-02
     HT FLOW CONVERGENCE VALUE=  0.3882E-02  CRITERION=  0.1919E+05 <<< CONVERGED
    >>> SOLUTION CONVERGED AFTER EQUILIBRIUM ITERATION   1
 *** LOAD STEP     1   SUBSTEP     5  COMPLETED.    CUM ITER =      6
 *** TIME =  0.566667E-01     TIME INC =  0.300000E-01
 *** RESPONSE EIGENVALUE =  2.477       OSCILLATION LIMIT = 0.7431E-01
 *** AUTO TIME STEP:  NEXT TIME INC = 0.90000E-01  INCREASED (FACTOR = 3.0000)

     HT FLOW CONVERGENCE VALUE=  0.3672E+07  CRITERION=  0.1913E+05
    EQUIL ITER   1 COMPLETED.  NEW TRIANG MATRIX.  MAX DOF INC=  0.9443E-02
     HT FLOW CONVERGENCE VALUE=  0.1984E-01  CRITERION=  0.1923E+05 <<< CONVERGED
    >>> SOLUTION CONVERGED AFTER EQUILIBRIUM ITERATION   1
 *** LOAD STEP     1   SUBSTEP     6  COMPLETED.    CUM ITER =      7
 *** TIME =  0.146667         TIME INC =  0.900000E-01
 *** RESPONSE EIGENVALUE = 0.2246       OSCILLATION LIMIT = 0.2022E-01
 *** AUTO TIME STEP:  NEXT TIME INC = 0.10000      INCREASED (FACTOR = 1.1111)

     HT FLOW CONVERGENCE VALUE=  0.3530E+07  CRITERION=  0.1913E+05
    EQUIL ITER   1 COMPLETED.  NEW TRIANG MATRIX.  MAX DOF INC=  0.9562E-02
     HT FLOW CONVERGENCE VALUE=  0.2035E-01  CRITERION=  0.1925E+05 <<< CONVERGED
    >>> SOLUTION CONVERGED AFTER EQUILIBRIUM ITERATION   1
 *** LOAD STEP     1   SUBSTEP     7  COMPLETED.    CUM ITER =      8
 *** TIME =  0.246667         TIME INC =  0.100000    
 *** RESPONSE EIGENVALUE = 0.1776E-01   OSCILLATION LIMIT = 0.1776E-02
 *** AUTO STEP TIME:  NEXT TIME INC = 0.10000      UNCHANGED

     HT FLOW CONVERGENCE VALUE=  0.3517E+07  CRITERION=  0.1914E+05
    EQUIL ITER   1 COMPLETED.  NEW TRIANG MATRIX.  MAX DOF INC=  0.9315E-02
     HT FLOW CONVERGENCE VALUE=  0.1931E-01  CRITERION=  0.1926E+05 <<< CONVERGED
    >>> SOLUTION CONVERGED AFTER EQUILIBRIUM ITERATION   1
 *** LOAD STEP     1   SUBSTEP     8  COMPLETED.    CUM ITER =      9
 *** TIME =  0.346667         TIME INC =  0.100000    
 *** RESPONSE EIGENVALUE = 0.1813E-02   OSCILLATION LIMIT = 0.1813E-03
 *** AUTO STEP TIME:  NEXT TIME INC = 0.10000      UNCHANGED

     HT FLOW CONVERGENCE VALUE=  0.3516E+07  CRITERION=  0.1914E+05
    EQUIL ITER   1 COMPLETED.  NEW TRIANG MATRIX.  MAX DOF INC=  0.9246E-02
     HT FLOW CONVERGENCE VALUE=  0.1903E-01  CRITERION=  0.1927E+05 <<< CONVERGED
    >>> SOLUTION CONVERGED AFTER EQUILIBRIUM ITERATION   1
 *** LOAD STEP     1   SUBSTEP     9  COMPLETED.    CUM ITER =     10
 *** TIME =  0.446667         TIME INC =  0.100000    
 *** RESPONSE EIGENVALUE = 0.5832E-03   OSCILLATION LIMIT = 0.5832E-04
 *** AUTO STEP TIME:  NEXT TIME INC = 0.10000      UNCHANGED

     HT FLOW CONVERGENCE VALUE=  0.3516E+07  CRITERION=  0.1915E+05
    EQUIL ITER   1 COMPLETED.  NEW TRIANG MATRIX.  MAX DOF INC=  0.9227E-02
     HT FLOW CONVERGENCE VALUE=  0.1895E-01  CRITERION=  0.1928E+05 <<< CONVERGED
    >>> SOLUTION CONVERGED AFTER EQUILIBRIUM ITERATION   1
 *** LOAD STEP     1   SUBSTEP    10  COMPLETED.    CUM ITER =     11
 *** TIME =  0.546667         TIME INC =  0.100000    
 *** RESPONSE EIGENVALUE = 0.4884E-03   OSCILLATION LIMIT = 0.4884E-04
 *** AUTO STEP TIME:  NEXT TIME INC = 0.10000      UNCHANGED

     HT FLOW CONVERGENCE VALUE=  0.3516E+07  CRITERION=  0.1915E+05
    EQUIL ITER   1 COMPLETED.  NEW TRIANG MATRIX.  MAX DOF INC=  0.9222E-02
     HT FLOW CONVERGENCE VALUE=  0.1893E-01  CRITERION=  0.1928E+05 <<< CONVERGED
    >>> SOLUTION CONVERGED AFTER EQUILIBRIUM ITERATION   1
 *** LOAD STEP     1   SUBSTEP    11  COMPLETED.    CUM ITER =     12
 *** TIME =  0.646667         TIME INC =  0.100000    
 *** RESPONSE EIGENVALUE = 0.4811E-03   OSCILLATION LIMIT = 0.4811E-04
 *** AUTO STEP TIME:  NEXT TIME INC = 0.10000      UNCHANGED

     HT FLOW CONVERGENCE VALUE=  0.3516E+07  CRITERION=  0.1916E+05
    EQUIL ITER   1 COMPLETED.  NEW TRIANG MATRIX.  MAX DOF INC=  0.9220E-02
     HT FLOW CONVERGENCE VALUE=  0.1892E-01  CRITERION=  0.1929E+05 <<< CONVERGED
    >>> SOLUTION CONVERGED AFTER EQUILIBRIUM ITERATION   1
 *** LOAD STEP     1   SUBSTEP    12  COMPLETED.    CUM ITER =     13
 *** TIME =  0.746667         TIME INC =  0.100000    
 *** RESPONSE EIGENVALUE = 0.4806E-03   OSCILLATION LIMIT = 0.4806E-04
 *** AUTO STEP TIME:  NEXT TIME INC = 0.10000      UNCHANGED

     HT FLOW CONVERGENCE VALUE=  0.3515E+07  CRITERION=  0.1916E+05
    EQUIL ITER   1 COMPLETED.  NEW TRIANG MATRIX.  MAX DOF INC=  0.9219E-02
     HT FLOW CONVERGENCE VALUE=  0.1892E-01  CRITERION=  0.1929E+05 <<< CONVERGED
    >>> SOLUTION CONVERGED AFTER EQUILIBRIUM ITERATION   1
 *** LOAD STEP     1   SUBSTEP    13  COMPLETED.    CUM ITER =     14
 *** TIME =  0.846667         TIME INC =  0.100000    
 *** RESPONSE EIGENVALUE = 0.4806E-03   OSCILLATION LIMIT = 0.4806E-04
 *** AUTO STEP TIME:  NEXT TIME INC = 0.10000      UNCHANGED

     HT FLOW CONVERGENCE VALUE=  0.3515E+07  CRITERION=  0.1917E+05
    EQUIL ITER   1 COMPLETED.  NEW TRIANG MATRIX.  MAX DOF INC=  0.9219E-02
     HT FLOW CONVERGENCE VALUE=  0.1892E-01  CRITERION=  0.1929E+05 <<< CONVERGED
    >>> SOLUTION CONVERGED AFTER EQUILIBRIUM ITERATION   1
 *** LOAD STEP     1   SUBSTEP    14  COMPLETED.    CUM ITER =     15
 *** TIME =  0.946667         TIME INC =  0.100000    
 *** RESPONSE EIGENVALUE = 0.4807E-03   OSCILLATION LIMIT = 0.4807E-04
 *** AUTO TIME STEP:  NEXT TIME INC = 0.53333E-01  DECREASED (FACTOR = 0.5333)

     HT FLOW CONVERGENCE VALUE=  0.3515E+07  CRITERION=  0.1917E+05
    EQUIL ITER   1 COMPLETED.  NEW TRIANG MATRIX.  MAX DOF INC=  0.4917E-02
     HT FLOW CONVERGENCE VALUE=  0.5384E-02  CRITERION=  0.1930E+05 <<< CONVERGED
    >>> SOLUTION CONVERGED AFTER EQUILIBRIUM ITERATION   1
 *** LOAD STEP     1   SUBSTEP    15  COMPLETED.    CUM ITER =     16
 *** TIME =   1.00000         TIME INC =  0.533333E-01
 *** RESPONSE EIGENVALUE = 0.4807E-03   OSCILLATION LIMIT = 0.2564E-04


 *** ANSYS BINARY FILE STATISTICS
  BUFFER SIZE USED= 16384
        0.375 MB WRITTEN ON ELEMENT SAVED DATA FILE: file0.esav
        1.375 MB WRITTEN ON ASSEMBLED MATRIX FILE: file0.full
       10.438 MB WRITTEN ON RESULTS FILE: file0.rth
 *************** Write FE CONNECTORS *********

 WRITE OUT CONSTRAINT EQUATIONS TO FILE= file.ce                                                                                                                                                                                                                                                             
 ****************************************************
 *************** FINISHED SOLVE FOR LS 1 *************
 ****************************************************
 ******************* SOLVE FOR LS 2 OF 300 ****************

 USE AUTOMATIC TIME STEPPING THIS LOAD STEP

 USE     100 SUBSTEPS INITIALLY THIS LOAD STEP FOR ALL  DEGREES OF FREEDOM
 FOR AUTOMATIC TIME STEPPING:
   USE   1000 SUBSTEPS AS A MAXIMUM
   USE     10 SUBSTEPS AS A MINIMUM

 TIME=  2.0000    

 INCLUDE TRANSIENT EFFECTS FOR  ALL DEGREES OF FREEDOM THIS LOAD STEP

 ERASE THE CURRENT DATABASE OUTPUT CONTROL TABLE.


 WRITE ALL  ITEMS TO THE DATABASE WITH A FREQUENCY OF NONE
   FOR ALL APPLICABLE ENTITIES

 WRITE NSOL ITEMS TO THE DATABASE WITH A FREQUENCY OF ALL 
   FOR ALL APPLICABLE ENTITIES

 WRITE RSOL ITEMS TO THE DATABASE WITH A FREQUENCY OF ALL 
   FOR ALL APPLICABLE ENTITIES

 WRITE FFLU ITEMS TO THE DATABASE WITH A FREQUENCY OF ALL 
   FOR ALL APPLICABLE ENTITIES

 WRITE MISC ITEMS TO THE DATABASE WITH A FREQUENCY OF ALL 
   FOR THE ENTITIES DEFINED BY COMPONENT _ELMISC 

 CONVERGENCE ON HEAT BASED ON THE NORM OF THE N-R LOAD
   WITH A TOLERANCE OF 0.1000E-02 AND A MINIMUM REFERENCE VALUE OF  10.00    
   USING THE L2 NORM (CHECK THE SRSS VALUE)

 *****  ANSYS SOLVE    COMMAND  *****

 *** NOTE ***                            CP =       8.564   TIME= 21:52:55
 This nonlinear analysis defaults to using the full Newton-Raphson       
 solution procedure.  This can be modified using the NROPT command.      

 *** ANSYS - ENGINEERING ANALYSIS SYSTEM  RELEASE Release 19.2     19.2     ***
 DISTRIBUTED ANSYS Academic Teaching Introductory              

 01055371  VERSION=WINDOWS x64   21:52:56  JAN 29, 2019 CP=      8.611

 unsaved_project--Transient Thermal (A5)                                       



                      L O A D   S T E P   O P T I O N S

   LOAD STEP NUMBER. . . . . . . . . . . . . . . .     2
   TIME AT END OF THE LOAD STEP. . . . . . . . . .  2.0000    
   AUTOMATIC TIME STEPPING . . . . . . . . . . . .    ON
      INITIAL NUMBER OF SUBSTEPS . . . . . . . . .   100
      MAXIMUM NUMBER OF SUBSTEPS . . . . . . . . .  1000
      MINIMUM NUMBER OF SUBSTEPS . . . . . . . . .    10
   MAXIMUM NUMBER OF EQUILIBRIUM ITERATIONS. . . .    15
   STEP CHANGE BOUNDARY CONDITIONS . . . . . . . .   YES
   TRANSIENT (INERTIA) EFFECTS
      THERMAL DOFS . . . . . . . . . . . . . . . .    ON
   TRANSIENT INTEGRATION PARAMETERS
      THETA. . . . . . . . . . . . . . . . . . . .  1.0000    
      OSCILLATION LIMIT CRITERION. . . . . . . . . 0.50000    
      TOLERANCE. . . . . . . . . . . . . . . . . .  0.0000    
   TERMINATE ANALYSIS IF NOT CONVERGED . . . . . .YES (EXIT)  
   CONVERGENCE CONTROLS
      LABEL   REFERENCE    TOLERANCE  NORM     MINREF
       HEAT    0.000       0.1000E-02   2      10.00    
   PRINT OUTPUT CONTROLS . . . . . . . . . . . . .NO PRINTOUT
   DATABASE OUTPUT CONTROLS
      ITEM     FREQUENCY   COMPONENT
       ALL       NONE               
      NSOL        ALL               
      RSOL        ALL               
      FFLU        ALL               
      MISC        ALL       _ELMISC 


 SOLUTION MONITORING INFO IS WRITTEN TO FILE= file.mntr                                                                                                                                                                                                                                                           

     HT FLOW CONVERGENCE VALUE=  0.3515E+07  CRITERION=  0.1918E+05
    EQUIL ITER   1 COMPLETED.  NEW TRIANG MATRIX.  MAX DOF INC=  0.9219E-03
     HT FLOW CONVERGENCE VALUE=  0.2418E-03  CRITERION=  0.1930E+05 <<< CONVERGED
    >>> SOLUTION CONVERGED AFTER EQUILIBRIUM ITERATION   1
 *** LOAD STEP     2   SUBSTEP     1  COMPLETED.    CUM ITER =     17
 *** TIME =   1.01000         TIME INC =  0.100000E-01
 *** RESPONSE EIGENVALUE = 0.4807E-03   OSCILLATION LIMIT = 0.4807E-05
 *** AUTO STEP TIME:  NEXT TIME INC = 0.10000E-01  UNCHANGED

     HT FLOW CONVERGENCE VALUE=  0.3515E+07  CRITERION=  0.1918E+05
    EQUIL ITER   1 COMPLETED.  NEW TRIANG MATRIX.  MAX DOF INC=  0.9219E-03
     HT FLOW CONVERGENCE VALUE=  0.2379E-03  CRITERION=  0.1930E+05 <<< CONVERGED
    >>> SOLUTION CONVERGED AFTER EQUILIBRIUM ITERATION   1
 *** LOAD STEP     2   SUBSTEP     2  COMPLETED.    CUM ITER =     18
 *** TIME =   1.02000         TIME INC =  0.100000E-01
 *** RESPONSE EIGENVALUE = 0.4807E-03   OSCILLATION LIMIT = 0.4807E-05
 *** AUTO TIME STEP:  NEXT TIME INC = 0.30000E-01  INCREASED (FACTOR = 3.0000)

     HT FLOW CONVERGENCE VALUE=  0.3515E+07  CRITERION=  0.1918E+05
    EQUIL ITER   1 COMPLETED.  NEW TRIANG MATRIX.  MAX DOF INC=  0.2766E-02
     HT FLOW CONVERGENCE VALUE=  0.1709E-02  CRITERION=  0.1930E+05 <<< CONVERGED
    >>> SOLUTION CONVERGED AFTER EQUILIBRIUM ITERATION   1
 *** LOAD STEP     2   SUBSTEP     3  COMPLETED.    CUM ITER =     19
 *** TIME =   1.05000         TIME INC =  0.300000E-01
 *** RESPONSE EIGENVALUE = 0.4807E-03   OSCILLATION LIMIT = 0.1442E-04
 *** AUTO TIME STEP:  NEXT TIME INC = 0.90000E-01  INCREASED (FACTOR = 3.0000)

     HT FLOW CONVERGENCE VALUE=  0.3515E+07  CRITERION=  0.1918E+05
    EQUIL ITER   1 COMPLETED.  NEW TRIANG MATRIX.  MAX DOF INC=  0.8296E-02
     HT FLOW CONVERGENCE VALUE=  0.1532E-01  CRITERION=  0.1930E+05 <<< CONVERGED
    >>> SOLUTION CONVERGED AFTER EQUILIBRIUM ITERATION   1
 *** LOAD STEP     2   SUBSTEP     4  COMPLETED.    CUM ITER =     20
 *** TIME =   1.14000         TIME INC =  0.900000E-01
 *** RESPONSE EIGENVALUE = 0.4808E-03   OSCILLATION LIMIT = 0.4327E-04
 *** AUTO TIME STEP:  NEXT TIME INC = 0.10000      INCREASED (FACTOR = 1.1111)

     HT FLOW CONVERGENCE VALUE=  0.3515E+07  CRITERION=  0.1918E+05
    EQUIL ITER   1 COMPLETED.  NEW TRIANG MATRIX.  MAX DOF INC=  0.9218E-02
     HT FLOW CONVERGENCE VALUE=  0.1892E-01  CRITERION=  0.1931E+05 <<< CONVERGED
    >>> SOLUTION CONVERGED AFTER EQUILIBRIUM ITERATION   1
 *** LOAD STEP     2   SUBSTEP     5  COMPLETED.    CUM ITER =     21
 *** TIME =   1.24000         TIME INC =  0.100000    
 *** RESPONSE EIGENVALUE = 0.4808E-03   OSCILLATION LIMIT = 0.4808E-04
 *** AUTO STEP TIME:  NEXT TIME INC = 0.10000      UNCHANGED

     HT FLOW CONVERGENCE VALUE=  0.3515E+07  CRITERION=  0.1919E+05
    EQUIL ITER   1 COMPLETED.  NEW TRIANG MATRIX.  MAX DOF INC=  0.9217E-02
     HT FLOW CONVERGENCE VALUE=  0.1892E-01  CRITERION=  0.1931E+05 <<< CONVERGED
    >>> SOLUTION CONVERGED AFTER EQUILIBRIUM ITERATION   1
 *** LOAD STEP     2   SUBSTEP     6  COMPLETED.    CUM ITER =     22
 *** TIME =   1.34000         TIME INC =  0.100000    
 *** RESPONSE EIGENVALUE = 0.4808E-03   OSCILLATION LIMIT = 0.4808E-04
 *** AUTO STEP TIME:  NEXT TIME INC = 0.10000      UNCHANGED

     HT FLOW CONVERGENCE VALUE=  0.3514E+07  CRITERION=  0.1919E+05
    EQUIL ITER   1 COMPLETED.  NEW TRIANG MATRIX.  MAX DOF INC=  0.9217E-02
     HT FLOW CONVERGENCE VALUE=  0.1892E-01  CRITERION=  0.1932E+05 <<< CONVERGED
    >>> SOLUTION CONVERGED AFTER EQUILIBRIUM ITERATION   1
 *** LOAD STEP     2   SUBSTEP     7  COMPLETED.    CUM ITER =     23
 *** TIME =   1.44000         TIME INC =  0.100000    
 *** RESPONSE EIGENVALUE = 0.4809E-03   OSCILLATION LIMIT = 0.4809E-04
 *** AUTO STEP TIME:  NEXT TIME INC = 0.10000      UNCHANGED

     HT FLOW CONVERGENCE VALUE=  0.3514E+07  CRITERION=  0.1920E+05
    EQUIL ITER   1 COMPLETED.  NEW TRIANG MATRIX.  MAX DOF INC=  0.9216E-02
     HT FLOW CONVERGENCE VALUE=  0.1892E-01  CRITERION=  0.1932E+05 <<< CONVERGED
    >>> SOLUTION CONVERGED AFTER EQUILIBRIUM ITERATION   1
 *** LOAD STEP     2   SUBSTEP     8  COMPLETED.    CUM ITER =     24
 *** TIME =   1.54000         TIME INC =  0.100000    
 *** RESPONSE EIGENVALUE = 0.4809E-03   OSCILLATION LIMIT = 0.4809E-04
 *** AUTO STEP TIME:  NEXT TIME INC = 0.10000      UNCHANGED

     HT FLOW CONVERGENCE VALUE=  0.3514E+07  CRITERION=  0.1920E+05
    EQUIL ITER   1 COMPLETED.  NEW TRIANG MATRIX.  MAX DOF INC=  0.9216E-02
     HT FLOW CONVERGENCE VALUE=  0.1891E-01  CRITERION=  0.1933E+05 <<< CONVERGED
    >>> SOLUTION CONVERGED AFTER EQUILIBRIUM ITERATION   1
 *** LOAD STEP     2   SUBSTEP     9  COMPLETED.    CUM ITER =     25
 *** TIME =   1.64000         TIME INC =  0.100000    
 *** RESPONSE EIGENVALUE = 0.4810E-03   OSCILLATION LIMIT = 0.4810E-04
 *** AUTO STEP TIME:  NEXT TIME INC = 0.10000      UNCHANGED

     HT FLOW CONVERGENCE VALUE=  0.3514E+07  CRITERION=  0.1921E+05
    EQUIL ITER   1 COMPLETED.  NEW TRIANG MATRIX.  MAX DOF INC=  0.9216E-02
     HT FLOW CONVERGENCE VALUE=  0.1891E-01  CRITERION=  0.1933E+05 <<< CONVERGED
    >>> SOLUTION CONVERGED AFTER EQUILIBRIUM ITERATION   1
 *** LOAD STEP     2   SUBSTEP    10  COMPLETED.    CUM ITER =     26
 *** TIME =   1.74000         TIME INC =  0.100000    
 *** RESPONSE EIGENVALUE = 0.4810E-03   OSCILLATION LIMIT = 0.4810E-04
 *** AUTO STEP TIME:  NEXT TIME INC = 0.10000      UNCHANGED

     HT FLOW CONVERGENCE VALUE=  0.3514E+07  CRITERION=  0.1921E+05
    EQUIL ITER   1 COMPLETED.  NEW TRIANG MATRIX.  MAX DOF INC=  0.9215E-02
     HT FLOW CONVERGENCE VALUE=  0.1891E-01  CRITERION=  0.1934E+05 <<< CONVERGED
    >>> SOLUTION CONVERGED AFTER EQUILIBRIUM ITERATION   1
 *** LOAD STEP     2   SUBSTEP    11  COMPLETED.    CUM ITER =     27
 *** TIME =   1.84000         TIME INC =  0.100000    
 *** RESPONSE EIGENVALUE = 0.4811E-03   OSCILLATION LIMIT = 0.4811E-04
 *** AUTO STEP TIME:  NEXT TIME INC = 0.10000      UNCHANGED

     HT FLOW CONVERGENCE VALUE=  0.3514E+07  CRITERION=  0.1922E+05
    EQUIL ITER   1 COMPLETED.  NEW TRIANG MATRIX.  MAX DOF INC=  0.9215E-02
     HT FLOW CONVERGENCE VALUE=  0.1891E-01  CRITERION=  0.1934E+05 <<< CONVERGED
    >>> SOLUTION CONVERGED AFTER EQUILIBRIUM ITERATION   1
 *** LOAD STEP     2   SUBSTEP    12  COMPLETED.    CUM ITER =     28
 *** TIME =   1.94000         TIME INC =  0.100000    
 *** RESPONSE EIGENVALUE = 0.4811E-03   OSCILLATION LIMIT = 0.4811E-04
 *** AUTO TIME STEP:  NEXT TIME INC = 0.60000E-01  DECREASED (FACTOR = 0.6000)

     HT FLOW CONVERGENCE VALUE=  0.3513E+07  CRITERION=  0.1922E+05
    EQUIL ITER   1 COMPLETED.  NEW TRIANG MATRIX.  MAX DOF INC=  0.5529E-02
     HT FLOW CONVERGENCE VALUE=  0.6810E-02  CRITERION=  0.1935E+05 <<< CONVERGED
    >>> SOLUTION CONVERGED AFTER EQUILIBRIUM ITERATION   1
 *** LOAD STEP     2   SUBSTEP    13  COMPLETED.    CUM ITER =     29
 *** TIME =   2.00000         TIME INC =  0.600000E-01
 *** RESPONSE EIGENVALUE = 0.4811E-03   OSCILLATION LIMIT = 0.2887E-04
 ****************************************************
 *************** FINISHED SOLVE FOR LS 2 *************
 ****************************************************
 ******************* SOLVE FOR LS 3 OF 300 ****************

 USE AUTOMATIC TIME STEPPING THIS LOAD STEP

 USE     100 SUBSTEPS INITIALLY THIS LOAD STEP FOR ALL  DEGREES OF FREEDOM
 FOR AUTOMATIC TIME STEPPING:
   USE   1000 SUBSTEPS AS A MAXIMUM
   USE     10 SUBSTEPS AS A MINIMUM

 TIME=  3.0000    

 INCLUDE TRANSIENT EFFECTS FOR  ALL DEGREES OF FREEDOM THIS LOAD STEP

 ERASE THE CURRENT DATABASE OUTPUT CONTROL TABLE.


 WRITE ALL  ITEMS TO THE DATABASE WITH A FREQUENCY OF NONE
   FOR ALL APPLICABLE ENTITIES

 WRITE NSOL ITEMS TO THE DATABASE WITH A FREQUENCY OF ALL 
   FOR ALL APPLICABLE ENTITIES

 WRITE RSOL ITEMS TO THE DATABASE WITH A FREQUENCY OF ALL 
   FOR ALL APPLICABLE ENTITIES

 WRITE FFLU ITEMS TO THE DATABASE WITH A FREQUENCY OF ALL 
   FOR ALL APPLICABLE ENTITIES

 WRITE MISC ITEMS TO THE DATABASE WITH A FREQUENCY OF ALL 
   FOR THE ENTITIES DEFINED BY COMPONENT _ELMISC 

 CONVERGENCE ON HEAT BASED ON THE NORM OF THE N-R LOAD
   WITH A TOLERANCE OF 0.1000E-02 AND A MINIMUM REFERENCE VALUE OF  10.00    
   USING THE L2 NORM (CHECK THE SRSS VALUE)

 *****  ANSYS SOLVE    COMMAND  *****

 *** NOTE ***                            CP =      12.730   TIME= 21:53:00
 This nonlinear analysis defaults to using the full Newton-Raphson       
 solution procedure.  This can be modified using the NROPT command.      

 *** ANSYS - ENGINEERING ANALYSIS SYSTEM  RELEASE Release 19.2     19.2     ***
 DISTRIBUTED ANSYS Academic Teaching Introductory              

 01055371  VERSION=WINDOWS x64   21:53:00  JAN 29, 2019 CP=     12.761

 unsaved_project--Transient Thermal (A5)                                       



                      L O A D   S T E P   O P T I O N S

   LOAD STEP NUMBER. . . . . . . . . . . . . . . .     3
   TIME AT END OF THE LOAD STEP. . . . . . . . . .  3.0000    
   AUTOMATIC TIME STEPPING . . . . . . . . . . . .    ON
      INITIAL NUMBER OF SUBSTEPS . . . . . . . . .   100
      MAXIMUM NUMBER OF SUBSTEPS . . . . . . . . .  1000
      MINIMUM NUMBER OF SUBSTEPS . . . . . . . . .    10
   MAXIMUM NUMBER OF EQUILIBRIUM ITERATIONS. . . .    15
   STEP CHANGE BOUNDARY CONDITIONS . . . . . . . .   YES
   TRANSIENT (INERTIA) EFFECTS
      THERMAL DOFS . . . . . . . . . . . . . . . .    ON
   TRANSIENT INTEGRATION PARAMETERS
      THETA. . . . . . . . . . . . . . . . . . . .  1.0000    
      OSCILLATION LIMIT CRITERION. . . . . . . . . 0.50000    
      TOLERANCE. . . . . . . . . . . . . . . . . .  0.0000    
   TERMINATE ANALYSIS IF NOT CONVERGED . . . . . .YES (EXIT)  
   CONVERGENCE CONTROLS
      LABEL   REFERENCE    TOLERANCE  NORM     MINREF
       HEAT    0.000       0.1000E-02   2      10.00    
   PRINT OUTPUT CONTROLS . . . . . . . . . . . . .NO PRINTOUT
   DATABASE OUTPUT CONTROLS
      ITEM     FREQUENCY   COMPONENT
       ALL       NONE               
      NSOL        ALL               
      RSOL        ALL               
      FFLU        ALL               
      MISC        ALL       _ELMISC 


 SOLUTION MONITORING INFO IS WRITTEN TO FILE= file.mntr                                                                                                                                                                                                                                                           

     HT FLOW CONVERGENCE VALUE=  0.3513E+07  CRITERION=  0.1923E+05
    EQUIL ITER   1 COMPLETED.  NEW TRIANG MATRIX.  MAX DOF INC=  0.9214E-03
     HT FLOW CONVERGENCE VALUE=  0.2394E-03  CRITERION=  0.1935E+05 <<< CONVERGED
    >>> SOLUTION CONVERGED AFTER EQUILIBRIUM ITERATION   1
 *** LOAD STEP     3   SUBSTEP     1  COMPLETED.    CUM ITER =     30
 *** TIME =   2.01000         TIME INC =  0.100000E-01
 *** RESPONSE EIGENVALUE = 0.4811E-03   OSCILLATION LIMIT = 0.4811E-05
 *** AUTO STEP TIME:  NEXT TIME INC = 0.10000E-01  UNCHANGED

     HT FLOW CONVERGENCE VALUE=  0.3513E+07  CRITERION=  0.1923E+05
    EQUIL ITER   1 COMPLETED.  NEW TRIANG MATRIX.  MAX DOF INC=  0.9214E-03
     HT FLOW CONVERGENCE VALUE=  0.2416E-03  CRITERION=  0.1935E+05 <<< CONVERGED
    >>> SOLUTION CONVERGED AFTER EQUILIBRIUM ITERATION   1
 *** LOAD STEP     3   SUBSTEP     2  COMPLETED.    CUM ITER =     31
 *** TIME =   2.02000         TIME INC =  0.100000E-01
 *** RESPONSE EIGENVALUE = 0.4812E-03   OSCILLATION LIMIT = 0.4812E-05
 *** AUTO TIME STEP:  NEXT TIME INC = 0.30000E-01  INCREASED (FACTOR = 3.0000)

     HT FLOW CONVERGENCE VALUE=  0.3513E+07  CRITERION=  0.1923E+05
    EQUIL ITER   1 COMPLETED.  NEW TRIANG MATRIX.  MAX DOF INC=  0.2764E-02
     HT FLOW CONVERGENCE VALUE=  0.1708E-02  CRITERION=  0.1935E+05 <<< CONVERGED
    >>> SOLUTION CONVERGED AFTER EQUILIBRIUM ITERATION   1
 *** LOAD STEP     3   SUBSTEP     3  COMPLETED.    CUM ITER =     32
 *** TIME =   2.05000         TIME INC =  0.300000E-01
 *** RESPONSE EIGENVALUE = 0.4812E-03   OSCILLATION LIMIT = 0.1444E-04
 *** AUTO TIME STEP:  NEXT TIME INC = 0.90000E-01  INCREASED (FACTOR = 3.0000)

     HT FLOW CONVERGENCE VALUE=  0.3513E+07  CRITERION=  0.1923E+05
    EQUIL ITER   1 COMPLETED.  NEW TRIANG MATRIX.  MAX DOF INC=  0.8292E-02
     HT FLOW CONVERGENCE VALUE=  0.1532E-01  CRITERION=  0.1935E+05 <<< CONVERGED
    >>> SOLUTION CONVERGED AFTER EQUILIBRIUM ITERATION   1
 *** LOAD STEP     3   SUBSTEP     4  COMPLETED.    CUM ITER =     33
 *** TIME =   2.14000         TIME INC =  0.900000E-01
 *** RESPONSE EIGENVALUE = 0.4812E-03   OSCILLATION LIMIT = 0.4331E-04
 *** AUTO TIME STEP:  NEXT TIME INC = 0.10000      INCREASED (FACTOR = 1.1111)

     HT FLOW CONVERGENCE VALUE=  0.3513E+07  CRITERION=  0.1923E+05
    EQUIL ITER   1 COMPLETED.  NEW TRIANG MATRIX.  MAX DOF INC=  0.9213E-02
     HT FLOW CONVERGENCE VALUE=  0.1891E-01  CRITERION=  0.1936E+05 <<< CONVERGED
    >>> SOLUTION CONVERGED AFTER EQUILIBRIUM ITERATION   1
 *** LOAD STEP     3   SUBSTEP     5  COMPLETED.    CUM ITER =     34
 *** TIME =   2.24000         TIME INC =  0.100000    
 *** RESPONSE EIGENVALUE = 0.4813E-03   OSCILLATION LIMIT = 0.4813E-04
 *** AUTO STEP TIME:  NEXT TIME INC = 0.10000      UNCHANGED

     HT FLOW CONVERGENCE VALUE=  0.3513E+07  CRITERION=  0.1924E+05
    EQUIL ITER   1 COMPLETED.  NEW TRIANG MATRIX.  MAX DOF INC=  0.9213E-02
     HT FLOW CONVERGENCE VALUE=  0.1891E-01  CRITERION=  0.1936E+05 <<< CONVERGED
    >>> SOLUTION CONVERGED AFTER EQUILIBRIUM ITERATION   1
 *** LOAD STEP     3   SUBSTEP     6  COMPLETED.    CUM ITER =     35
 *** TIME =   2.34000         TIME INC =  0.100000    
 *** RESPONSE EIGENVALUE = 0.4813E-03   OSCILLATION LIMIT = 0.4813E-04
 *** AUTO STEP TIME:  NEXT TIME INC = 0.10000      UNCHANGED

     HT FLOW CONVERGENCE VALUE=  0.3513E+07  CRITERION=  0.1924E+05
    EQUIL ITER   1 COMPLETED.  NEW TRIANG MATRIX.  MAX DOF INC=  0.9212E-02
     HT FLOW CONVERGENCE VALUE=  0.1891E-01  CRITERION=  0.1937E+05 <<< CONVERGED
    >>> SOLUTION CONVERGED AFTER EQUILIBRIUM ITERATION   1
 *** LOAD STEP     3   SUBSTEP     7  COMPLETED.    CUM ITER =     36
 *** TIME =   2.44000         TIME INC =  0.100000    
 *** RESPONSE EIGENVALUE = 0.4813E-03   OSCILLATION LIMIT = 0.4813E-04
 *** AUTO STEP TIME:  NEXT TIME INC = 0.10000      UNCHANGED

     HT FLOW CONVERGENCE VALUE=  0.3513E+07  CRITERION=  0.1925E+05
    EQUIL ITER   1 COMPLETED.  NEW TRIANG MATRIX.  MAX DOF INC=  0.9212E-02
     HT FLOW CONVERGENCE VALUE=  0.1891E-01  CRITERION=  0.1937E+05 <<< CONVERGED
    >>> SOLUTION CONVERGED AFTER EQUILIBRIUM ITERATION   1
 *** LOAD STEP     3   SUBSTEP     8  COMPLETED.    CUM ITER =     37
 *** TIME =   2.54000         TIME INC =  0.100000    
 *** RESPONSE EIGENVALUE = 0.4814E-03   OSCILLATION LIMIT = 0.4814E-04
 *** AUTO STEP TIME:  NEXT TIME INC = 0.10000      UNCHANGED

     HT FLOW CONVERGENCE VALUE=  0.3512E+07  CRITERION=  0.1925E+05
    EQUIL ITER   1 COMPLETED.  NEW TRIANG MATRIX.  MAX DOF INC=  0.9212E-02
     HT FLOW CONVERGENCE VALUE=  0.1891E-01  CRITERION=  0.1938E+05 <<< CONVERGED
    >>> SOLUTION CONVERGED AFTER EQUILIBRIUM ITERATION   1
 *** LOAD STEP     3   SUBSTEP     9  COMPLETED.    CUM ITER =     38
 *** TIME =   2.64000         TIME INC =  0.100000    
 *** RESPONSE EIGENVALUE = 0.4814E-03   OSCILLATION LIMIT = 0.4814E-04
 *** AUTO STEP TIME:  NEXT TIME INC = 0.10000      UNCHANGED

     HT FLOW CONVERGENCE VALUE=  0.3512E+07  CRITERION=  0.1926E+05
    EQUIL ITER   1 COMPLETED.  NEW TRIANG MATRIX.  MAX DOF INC=  0.9211E-02
     HT FLOW CONVERGENCE VALUE=  0.1891E-01  CRITERION=  0.1938E+05 <<< CONVERGED
    >>> SOLUTION CONVERGED AFTER EQUILIBRIUM ITERATION   1
 *** LOAD STEP     3   SUBSTEP    10  COMPLETED.    CUM ITER =     39
 *** TIME =   2.74000         TIME INC =  0.100000    
 *** RESPONSE EIGENVALUE = 0.4815E-03   OSCILLATION LIMIT = 0.4815E-04
 *** AUTO STEP TIME:  NEXT TIME INC = 0.10000      UNCHANGED

     HT FLOW CONVERGENCE VALUE=  0.3512E+07  CRITERION=  0.1926E+05
    EQUIL ITER   1 COMPLETED.  NEW TRIANG MATRIX.  MAX DOF INC=  0.9211E-02
     HT FLOW CONVERGENCE VALUE=  0.1891E-01  CRITERION=  0.1939E+05 <<< CONVERGED
    >>> SOLUTION CONVERGED AFTER EQUILIBRIUM ITERATION   1
 *** LOAD STEP     3   SUBSTEP    11  COMPLETED.    CUM ITER =     40
 *** TIME =   2.84000         TIME INC =  0.100000    
 *** RESPONSE EIGENVALUE = 0.4815E-03   OSCILLATION LIMIT = 0.4815E-04
 *** AUTO STEP TIME:  NEXT TIME INC = 0.10000      UNCHANGED

     HT FLOW CONVERGENCE VALUE=  0.3512E+07  CRITERION=  0.1927E+05
    EQUIL ITER   1 COMPLETED.  NEW TRIANG MATRIX.  MAX DOF INC=  0.9210E-02
     HT FLOW CONVERGENCE VALUE=  0.1891E-01  CRITERION=  0.1939E+05 <<< CONVERGED
    >>> SOLUTION CONVERGED AFTER EQUILIBRIUM ITERATION   1
 *** LOAD STEP     3   SUBSTEP    12  COMPLETED.    CUM ITER =     41
 *** TIME =   2.94000         TIME INC =  0.100000    
 *** RESPONSE EIGENVALUE = 0.4816E-03   OSCILLATION LIMIT = 0.4816E-04
 *** AUTO TIME STEP:  NEXT TIME INC = 0.60000E-01  DECREASED (FACTOR = 0.6000)

     HT FLOW CONVERGENCE VALUE=  0.3512E+07  CRITERION=  0.1927E+05
    EQUIL ITER   1 COMPLETED.  NEW TRIANG MATRIX.  MAX DOF INC=  0.5526E-02
     HT FLOW CONVERGENCE VALUE=  0.6808E-02  CRITERION=  0.1939E+05 <<< CONVERGED
    >>> SOLUTION CONVERGED AFTER EQUILIBRIUM ITERATION   1
 *** LOAD STEP     3   SUBSTEP    13  COMPLETED.    CUM ITER =     42
 *** TIME =   3.00000         TIME INC =  0.600000E-01
 *** RESPONSE EIGENVALUE = 0.4816E-03   OSCILLATION LIMIT = 0.2890E-04
 ****************************************************
 *************** FINISHED SOLVE FOR LS 3 *************
 ****************************************************
 ******************* SOLVE FOR LS 4 OF 300 ****************

 USE AUTOMATIC TIME STEPPING THIS LOAD STEP

 USE     100 SUBSTEPS INITIALLY THIS LOAD STEP FOR ALL  DEGREES OF FREEDOM
 FOR AUTOMATIC TIME STEPPING:
   USE   1000 SUBSTEPS AS A MAXIMUM
   USE     10 SUBSTEPS AS A MINIMUM

 TIME=  4.0000    

 INCLUDE TRANSIENT EFFECTS FOR  ALL DEGREES OF FREEDOM THIS LOAD STEP

 ERASE THE CURRENT DATABASE OUTPUT CONTROL TABLE.


 WRITE ALL  ITEMS TO THE DATABASE WITH A FREQUENCY OF NONE
   FOR ALL APPLICABLE ENTITIES

 WRITE NSOL ITEMS TO THE DATABASE WITH A FREQUENCY OF ALL 
   FOR ALL APPLICABLE ENTITIES

 WRITE RSOL ITEMS TO THE DATABASE WITH A FREQUENCY OF ALL 
   FOR ALL APPLICABLE ENTITIES

 WRITE FFLU ITEMS TO THE DATABASE WITH A FREQUENCY OF ALL 
   FOR ALL APPLICABLE ENTITIES

 WRITE MISC ITEMS TO THE DATABASE WITH A FREQUENCY OF ALL 
   FOR THE ENTITIES DEFINED BY COMPONENT _ELMISC 

 CONVERGENCE ON HEAT BASED ON THE NORM OF THE N-R LOAD
   WITH A TOLERANCE OF 0.1000E-02 AND A MINIMUM REFERENCE VALUE OF  10.00    
   USING THE L2 NORM (CHECK THE SRSS VALUE)

 *****  ANSYS SOLVE    COMMAND  *****

 *** NOTE ***                            CP =      16.099   TIME= 21:53:03
 This nonlinear analysis defaults to using the full Newton-Raphson       
 solution procedure.  This can be modified using the NROPT command.      

 *** ANSYS - ENGINEERING ANALYSIS SYSTEM  RELEASE Release 19.2     19.2     ***
 DISTRIBUTED ANSYS Academic Teaching Introductory              

 01055371  VERSION=WINDOWS x64   21:53:03  JAN 29, 2019 CP=     16.131

 unsaved_project--Transient Thermal (A5)                                       



                      L O A D   S T E P   O P T I O N S

   LOAD STEP NUMBER. . . . . . . . . . . . . . . .     4
   TIME AT END OF THE LOAD STEP. . . . . . . . . .  4.0000    
   AUTOMATIC TIME STEPPING . . . . . . . . . . . .    ON
      INITIAL NUMBER OF SUBSTEPS . . . . . . . . .   100
      MAXIMUM NUMBER OF SUBSTEPS . . . . . . . . .  1000
      MINIMUM NUMBER OF SUBSTEPS . . . . . . . . .    10
   MAXIMUM NUMBER OF EQUILIBRIUM ITERATIONS. . . .    15
   STEP CHANGE BOUNDARY CONDITIONS . . . . . . . .   YES
   TRANSIENT (INERTIA) EFFECTS
      THERMAL DOFS . . . . . . . . . . . . . . . .    ON
   TRANSIENT INTEGRATION PARAMETERS
      THETA. . . . . . . . . . . . . . . . . . . .  1.0000    
      OSCILLATION LIMIT CRITERION. . . . . . . . . 0.50000    
      TOLERANCE. . . . . . . . . . . . . . . . . .  0.0000    
   TERMINATE ANALYSIS IF NOT CONVERGED . . . . . .YES (EXIT)  
   CONVERGENCE CONTROLS
      LABEL   REFERENCE    TOLERANCE  NORM     MINREF
       HEAT    0.000       0.1000E-02   2      10.00    
   PRINT OUTPUT CONTROLS . . . . . . . . . . . . .NO PRINTOUT
   DATABASE OUTPUT CONTROLS
      ITEM     FREQUENCY   COMPONENT
       ALL       NONE               
      NSOL        ALL               
      RSOL        ALL               
      FFLU        ALL               
      MISC        ALL       _ELMISC 


 SOLUTION MONITORING INFO IS WRITTEN TO FILE= file.mntr                                                                                                                                                                                                                                                           

     HT FLOW CONVERGENCE VALUE=  0.3512E+07  CRITERION=  0.1928E+05
    EQUIL ITER   1 COMPLETED.  NEW TRIANG MATRIX.  MAX DOF INC=  0.9210E-03
     HT FLOW CONVERGENCE VALUE=  0.2408E-03  CRITERION=  0.1940E+05 <<< CONVERGED
    >>> SOLUTION CONVERGED AFTER EQUILIBRIUM ITERATION   1
 *** LOAD STEP     4   SUBSTEP     1  COMPLETED.    CUM ITER =     43
 *** TIME =   3.01000         TIME INC =  0.100000E-01
 *** RESPONSE EIGENVALUE = 0.4816E-03   OSCILLATION LIMIT = 0.4816E-05
 *** AUTO STEP TIME:  NEXT TIME INC = 0.10000E-01  UNCHANGED

     HT FLOW CONVERGENCE VALUE=  0.3512E+07  CRITERION=  0.1928E+05
    EQUIL ITER   1 COMPLETED.  NEW TRIANG MATRIX.  MAX DOF INC=  0.9210E-03
     HT FLOW CONVERGENCE VALUE=  0.2408E-03  CRITERION=  0.1940E+05 <<< CONVERGED
    >>> SOLUTION CONVERGED AFTER EQUILIBRIUM ITERATION   1
 *** LOAD STEP     4   SUBSTEP     2  COMPLETED.    CUM ITER =     44
 *** TIME =   3.02000         TIME INC =  0.100000E-01
 *** RESPONSE EIGENVALUE = 0.4816E-03   OSCILLATION LIMIT = 0.4816E-05
 *** AUTO TIME STEP:  NEXT TIME INC = 0.30000E-01  INCREASED (FACTOR = 3.0000)

     HT FLOW CONVERGENCE VALUE=  0.3512E+07  CRITERION=  0.1928E+05
    EQUIL ITER   1 COMPLETED.  NEW TRIANG MATRIX.  MAX DOF INC=  0.2763E-02
     HT FLOW CONVERGENCE VALUE=  0.1708E-02  CRITERION=  0.1940E+05 <<< CONVERGED
    >>> SOLUTION CONVERGED AFTER EQUILIBRIUM ITERATION   1
 *** LOAD STEP     4   SUBSTEP     3  COMPLETED.    CUM ITER =     45
 *** TIME =   3.05000         TIME INC =  0.300000E-01
 *** RESPONSE EIGENVALUE = 0.4816E-03   OSCILLATION LIMIT = 0.1445E-04
 *** AUTO TIME STEP:  NEXT TIME INC = 0.90000E-01  INCREASED (FACTOR = 3.0000)

     HT FLOW CONVERGENCE VALUE=  0.3511E+07  CRITERION=  0.1928E+05
    EQUIL ITER   1 COMPLETED.  NEW TRIANG MATRIX.  MAX DOF INC=  0.8288E-02
     HT FLOW CONVERGENCE VALUE=  0.1531E-01  CRITERION=  0.1940E+05 <<< CONVERGED
    >>> SOLUTION CONVERGED AFTER EQUILIBRIUM ITERATION   1
 *** LOAD STEP     4   SUBSTEP     4  COMPLETED.    CUM ITER =     46
 *** TIME =   3.14000         TIME INC =  0.900000E-01
 *** RESPONSE EIGENVALUE = 0.4817E-03   OSCILLATION LIMIT = 0.4335E-04
 *** AUTO TIME STEP:  NEXT TIME INC = 0.10000      INCREASED (FACTOR = 1.1111)

     HT FLOW CONVERGENCE VALUE=  0.3511E+07  CRITERION=  0.1928E+05
    EQUIL ITER   1 COMPLETED.  NEW TRIANG MATRIX.  MAX DOF INC=  0.9209E-02
     HT FLOW CONVERGENCE VALUE=  0.1890E-01  CRITERION=  0.1941E+05 <<< CONVERGED
    >>> SOLUTION CONVERGED AFTER EQUILIBRIUM ITERATION   1
 *** LOAD STEP     4   SUBSTEP     5  COMPLETED.    CUM ITER =     47
 *** TIME =   3.24000         TIME INC =  0.100000    
 *** RESPONSE EIGENVALUE = 0.4817E-03   OSCILLATION LIMIT = 0.4817E-04
 *** AUTO STEP TIME:  NEXT TIME INC = 0.10000      UNCHANGED

     HT FLOW CONVERGENCE VALUE=  0.3511E+07  CRITERION=  0.1929E+05
    EQUIL ITER   1 COMPLETED.  NEW TRIANG MATRIX.  MAX DOF INC=  0.9208E-02
     HT FLOW CONVERGENCE VALUE=  0.1890E-01  CRITERION=  0.1941E+05 <<< CONVERGED
    >>> SOLUTION CONVERGED AFTER EQUILIBRIUM ITERATION   1
 *** LOAD STEP     4   SUBSTEP     6  COMPLETED.    CUM ITER =     48
 *** TIME =   3.34000         TIME INC =  0.100000    
 *** RESPONSE EIGENVALUE = 0.4817E-03   OSCILLATION LIMIT = 0.4817E-04
 *** AUTO STEP TIME:  NEXT TIME INC = 0.10000      UNCHANGED

     HT FLOW CONVERGENCE VALUE=  0.3511E+07  CRITERION=  0.1929E+05
    EQUIL ITER   1 COMPLETED.  NEW TRIANG MATRIX.  MAX DOF INC=  0.9208E-02
     HT FLOW CONVERGENCE VALUE=  0.1890E-01  CRITERION=  0.1942E+05 <<< CONVERGED
    >>> SOLUTION CONVERGED AFTER EQUILIBRIUM ITERATION   1
 *** LOAD STEP     4   SUBSTEP     7  COMPLETED.    CUM ITER =     49
 *** TIME =   3.44000         TIME INC =  0.100000    
 *** RESPONSE EIGENVALUE = 0.4818E-03   OSCILLATION LIMIT = 0.4818E-04
 *** AUTO STEP TIME:  NEXT TIME INC = 0.10000      UNCHANGED

     HT FLOW CONVERGENCE VALUE=  0.3511E+07  CRITERION=  0.1930E+05
    EQUIL ITER   1 COMPLETED.  NEW TRIANG MATRIX.  MAX DOF INC=  0.9208E-02
     HT FLOW CONVERGENCE VALUE=  0.1890E-01  CRITERION=  0.1942E+05 <<< CONVERGED
    >>> SOLUTION CONVERGED AFTER EQUILIBRIUM ITERATION   1
 *** LOAD STEP     4   SUBSTEP     8  COMPLETED.    CUM ITER =     50
 *** TIME =   3.54000         TIME INC =  0.100000    
 *** RESPONSE EIGENVALUE = 0.4818E-03   OSCILLATION LIMIT = 0.4818E-04
 *** AUTO STEP TIME:  NEXT TIME INC = 0.10000      UNCHANGED

     HT FLOW CONVERGENCE VALUE=  0.3511E+07  CRITERION=  0.1930E+05
    EQUIL ITER   1 COMPLETED.  NEW TRIANG MATRIX.  MAX DOF INC=  0.9207E-02
     HT FLOW CONVERGENCE VALUE=  0.1890E-01  CRITERION=  0.1943E+05 <<< CONVERGED
    >>> SOLUTION CONVERGED AFTER EQUILIBRIUM ITERATION   1
 *** LOAD STEP     4   SUBSTEP     9  COMPLETED.    CUM ITER =     51
 *** TIME =   3.64000         TIME INC =  0.100000    
 *** RESPONSE EIGENVALUE = 0.4819E-03   OSCILLATION LIMIT = 0.4819E-04
 *** AUTO STEP TIME:  NEXT TIME INC = 0.10000      UNCHANGED

     HT FLOW CONVERGENCE VALUE=  0.3510E+07  CRITERION=  0.1931E+05
    EQUIL ITER   1 COMPLETED.  NEW TRIANG MATRIX.  MAX DOF INC=  0.9207E-02
     HT FLOW CONVERGENCE VALUE=  0.1890E-01  CRITERION=  0.1943E+05 <<< CONVERGED
    >>> SOLUTION CONVERGED AFTER EQUILIBRIUM ITERATION   1
 *** LOAD STEP     4   SUBSTEP    10  COMPLETED.    CUM ITER =     52
 *** TIME =   3.74000         TIME INC =  0.100000    
 *** RESPONSE EIGENVALUE = 0.4819E-03   OSCILLATION LIMIT = 0.4819E-04
 *** AUTO STEP TIME:  NEXT TIME INC = 0.10000      UNCHANGED

     HT FLOW CONVERGENCE VALUE=  0.3510E+07  CRITERION=  0.1931E+05
    EQUIL ITER   1 COMPLETED.  NEW TRIANG MATRIX.  MAX DOF INC=  0.9206E-02
     HT FLOW CONVERGENCE VALUE=  0.1890E-01  CRITERION=  0.1944E+05 <<< CONVERGED
    >>> SOLUTION CONVERGED AFTER EQUILIBRIUM ITERATION   1
 *** LOAD STEP     4   SUBSTEP    11  COMPLETED.    CUM ITER =     53
 *** TIME =   3.84000         TIME INC =  0.100000    
 *** RESPONSE EIGENVALUE = 0.4820E-03   OSCILLATION LIMIT = 0.4820E-04
 *** AUTO STEP TIME:  NEXT TIME INC = 0.10000      UNCHANGED

     HT FLOW CONVERGENCE VALUE=  0.3510E+07  CRITERION=  0.1932E+05
    EQUIL ITER   1 COMPLETED.  NEW TRIANG MATRIX.  MAX DOF INC=  0.9206E-02
     HT FLOW CONVERGENCE VALUE=  0.1890E-01  CRITERION=  0.1944E+05 <<< CONVERGED
    >>> SOLUTION CONVERGED AFTER EQUILIBRIUM ITERATION   1
 *** LOAD STEP     4   SUBSTEP    12  COMPLETED.    CUM ITER =     54
 *** TIME =   3.94000         TIME INC =  0.100000    
 *** RESPONSE EIGENVALUE = 0.4820E-03   OSCILLATION LIMIT = 0.4820E-04
 *** AUTO TIME STEP:  NEXT TIME INC = 0.60000E-01  DECREASED (FACTOR = 0.6000)

     HT FLOW CONVERGENCE VALUE=  0.3510E+07  CRITERION=  0.1932E+05
    EQUIL ITER   1 COMPLETED.  NEW TRIANG MATRIX.  MAX DOF INC=  0.5523E-02
     HT FLOW CONVERGENCE VALUE=  0.6806E-02  CRITERION=  0.1944E+05 <<< CONVERGED
    >>> SOLUTION CONVERGED AFTER EQUILIBRIUM ITERATION   1
 *** LOAD STEP     4   SUBSTEP    13  COMPLETED.    CUM ITER =     55
 *** TIME =   4.00000         TIME INC =  0.600000E-01
 *** RESPONSE EIGENVALUE = 0.4820E-03   OSCILLATION LIMIT = 0.2892E-04
 ****************************************************
 *************** FINISHED SOLVE FOR LS 4 *************
 ****************************************************
 ******************* SOLVE FOR LS 5 OF 300 ****************

 USE AUTOMATIC TIME STEPPING THIS LOAD STEP

 USE     100 SUBSTEPS INITIALLY THIS LOAD STEP FOR ALL  DEGREES OF FREEDOM
 FOR AUTOMATIC TIME STEPPING:
   USE   1000 SUBSTEPS AS A MAXIMUM
   USE     10 SUBSTEPS AS A MINIMUM

 TIME=  5.0000    

 INCLUDE TRANSIENT EFFECTS FOR  ALL DEGREES OF FREEDOM THIS LOAD STEP

 ERASE THE CURRENT DATABASE OUTPUT CONTROL TABLE.


 WRITE ALL  ITEMS TO THE DATABASE WITH A FREQUENCY OF NONE
   FOR ALL APPLICABLE ENTITIES

 WRITE NSOL ITEMS TO THE DATABASE WITH A FREQUENCY OF ALL 
   FOR ALL APPLICABLE ENTITIES

 WRITE RSOL ITEMS TO THE DATABASE WITH A FREQUENCY OF ALL 
   FOR ALL APPLICABLE ENTITIES

 WRITE FFLU ITEMS TO THE DATABASE WITH A FREQUENCY OF ALL 
   FOR ALL APPLICABLE ENTITIES

 WRITE MISC ITEMS TO THE DATABASE WITH A FREQUENCY OF ALL 
   FOR THE ENTITIES DEFINED BY COMPONENT _ELMISC 

 CONVERGENCE ON HEAT BASED ON THE NORM OF THE N-R LOAD
   WITH A TOLERANCE OF 0.1000E-02 AND A MINIMUM REFERENCE VALUE OF  10.00    
   USING THE L2 NORM (CHECK THE SRSS VALUE)

 *****  ANSYS SOLVE    COMMAND  *****

 *** NOTE ***                            CP =      19.313   TIME= 21:53:06
 This nonlinear analysis defaults to using the full Newton-Raphson       
 solution procedure.  This can be modified using the NROPT command.      

 *** ANSYS - ENGINEERING ANALYSIS SYSTEM  RELEASE Release 19.2     19.2     ***
 DISTRIBUTED ANSYS Academic Teaching Introductory              

 01055371  VERSION=WINDOWS x64   21:53:06  JAN 29, 2019 CP=     19.344

 unsaved_project--Transient Thermal (A5)                                       



                      L O A D   S T E P   O P T I O N S

   LOAD STEP NUMBER. . . . . . . . . . . . . . . .     5
   TIME AT END OF THE LOAD STEP. . . . . . . . . .  5.0000    
   AUTOMATIC TIME STEPPING . . . . . . . . . . . .    ON
      INITIAL NUMBER OF SUBSTEPS . . . . . . . . .   100
      MAXIMUM NUMBER OF SUBSTEPS . . . . . . . . .  1000
      MINIMUM NUMBER OF SUBSTEPS . . . . . . . . .    10
   MAXIMUM NUMBER OF EQUILIBRIUM ITERATIONS. . . .    15
   STEP CHANGE BOUNDARY CONDITIONS . . . . . . . .   YES
   TRANSIENT (INERTIA) EFFECTS
      THERMAL DOFS . . . . . . . . . . . . . . . .    ON
   TRANSIENT INTEGRATION PARAMETERS
      THETA. . . . . . . . . . . . . . . . . . . .  1.0000    
      OSCILLATION LIMIT CRITERION. . . . . . . . . 0.50000    
      TOLERANCE. . . . . . . . . . . . . . . . . .  0.0000    
   TERMINATE ANALYSIS IF NOT CONVERGED . . . . . .YES (EXIT)  
   CONVERGENCE CONTROLS
      LABEL   REFERENCE    TOLERANCE  NORM     MINREF
       HEAT    0.000       0.1000E-02   2      10.00    
   PRINT OUTPUT CONTROLS . . . . . . . . . . . . .NO PRINTOUT
   DATABASE OUTPUT CONTROLS
      ITEM     FREQUENCY   COMPONENT
       ALL       NONE               
      NSOL        ALL               
      RSOL        ALL               
      FFLU        ALL               
      MISC        ALL       _ELMISC 


 SOLUTION MONITORING INFO IS WRITTEN TO FILE= file.mntr                                                                                                                                                                                                                                                           

     HT FLOW CONVERGENCE VALUE=  0.3510E+07  CRITERION=  0.1932E+05
    EQUIL ITER   1 COMPLETED.  NEW TRIANG MATRIX.  MAX DOF INC=  0.9205E-03
     HT FLOW CONVERGENCE VALUE=  0.2413E-03  CRITERION=  0.1944E+05 <<< CONVERGED
    >>> SOLUTION CONVERGED AFTER EQUILIBRIUM ITERATION   1
 *** LOAD STEP     5   SUBSTEP     1  COMPLETED.    CUM ITER =     56
 *** TIME =   4.01000         TIME INC =  0.100000E-01
 *** RESPONSE EIGENVALUE = 0.4820E-03   OSCILLATION LIMIT = 0.4820E-05
 *** AUTO STEP TIME:  NEXT TIME INC = 0.10000E-01  UNCHANGED

     HT FLOW CONVERGENCE VALUE=  0.3510E+07  CRITERION=  0.1933E+05
    EQUIL ITER   1 COMPLETED.  NEW TRIANG MATRIX.  MAX DOF INC=  0.9205E-03
     HT FLOW CONVERGENCE VALUE=  0.2396E-03  CRITERION=  0.1944E+05 <<< CONVERGED
    >>> SOLUTION CONVERGED AFTER EQUILIBRIUM ITERATION   1
 *** LOAD STEP     5   SUBSTEP     2  COMPLETED.    CUM ITER =     57
 *** TIME =   4.02000         TIME INC =  0.100000E-01
 *** RESPONSE EIGENVALUE = 0.4821E-03   OSCILLATION LIMIT = 0.4821E-05
 *** AUTO TIME STEP:  NEXT TIME INC = 0.30000E-01  INCREASED (FACTOR = 3.0000)

     HT FLOW CONVERGENCE VALUE=  0.3510E+07  CRITERION=  0.1933E+05
    EQUIL ITER   1 COMPLETED.  NEW TRIANG MATRIX.  MAX DOF INC=  0.2762E-02
     HT FLOW CONVERGENCE VALUE=  0.1708E-02  CRITERION=  0.1945E+05 <<< CONVERGED
    >>> SOLUTION CONVERGED AFTER EQUILIBRIUM ITERATION   1
 *** LOAD STEP     5   SUBSTEP     3  COMPLETED.    CUM ITER =     58
 *** TIME =   4.05000         TIME INC =  0.300000E-01
 *** RESPONSE EIGENVALUE = 0.4821E-03   OSCILLATION LIMIT = 0.1446E-04
 *** AUTO TIME STEP:  NEXT TIME INC = 0.90000E-01  INCREASED (FACTOR = 3.0000)

     HT FLOW CONVERGENCE VALUE=  0.3510E+07  CRITERION=  0.1933E+05
    EQUIL ITER   1 COMPLETED.  NEW TRIANG MATRIX.  MAX DOF INC=  0.8284E-02
     HT FLOW CONVERGENCE VALUE=  0.1531E-01  CRITERION=  0.1945E+05 <<< CONVERGED
    >>> SOLUTION CONVERGED AFTER EQUILIBRIUM ITERATION   1
 *** LOAD STEP     5   SUBSTEP     4  COMPLETED.    CUM ITER =     59
 *** TIME =   4.14000         TIME INC =  0.900000E-01
 *** RESPONSE EIGENVALUE = 0.4821E-03   OSCILLATION LIMIT = 0.4339E-04
 *** AUTO TIME STEP:  NEXT TIME INC = 0.10000      INCREASED (FACTOR = 1.1111)

     HT FLOW CONVERGENCE VALUE=  0.3510E+07  CRITERION=  0.1933E+05
    EQUIL ITER   1 COMPLETED.  NEW TRIANG MATRIX.  MAX DOF INC=  0.9204E-02
     HT FLOW CONVERGENCE VALUE=  0.1890E-01  CRITERION=  0.1946E+05 <<< CONVERGED
    >>> SOLUTION CONVERGED AFTER EQUILIBRIUM ITERATION   1
 *** LOAD STEP     5   SUBSTEP     5  COMPLETED.    CUM ITER =     60
 *** TIME =   4.24000         TIME INC =  0.100000    
 *** RESPONSE EIGENVALUE = 0.4822E-03   OSCILLATION LIMIT = 0.4822E-04
 *** AUTO STEP TIME:  NEXT TIME INC = 0.10000      UNCHANGED

     HT FLOW CONVERGENCE VALUE=  0.3509E+07  CRITERION=  0.1934E+05
    EQUIL ITER   1 COMPLETED.  NEW TRIANG MATRIX.  MAX DOF INC=  0.9204E-02
     HT FLOW CONVERGENCE VALUE=  0.1890E-01  CRITERION=  0.1946E+05 <<< CONVERGED
    >>> SOLUTION CONVERGED AFTER EQUILIBRIUM ITERATION   1
 *** LOAD STEP     5   SUBSTEP     6  COMPLETED.    CUM ITER =     61
 *** TIME =   4.34000         TIME INC =  0.100000    
 *** RESPONSE EIGENVALUE = 0.4822E-03   OSCILLATION LIMIT = 0.4822E-04
 *** AUTO STEP TIME:  NEXT TIME INC = 0.10000      UNCHANGED

     HT FLOW CONVERGENCE VALUE=  0.3509E+07  CRITERION=  0.1934E+05
    EQUIL ITER   1 COMPLETED.  NEW TRIANG MATRIX.  MAX DOF INC=  0.9204E-02
     HT FLOW CONVERGENCE VALUE=  0.1890E-01  CRITERION=  0.1947E+05 <<< CONVERGED
    >>> SOLUTION CONVERGED AFTER EQUILIBRIUM ITERATION   1
 *** LOAD STEP     5   SUBSTEP     7  COMPLETED.    CUM ITER =     62
 *** TIME =   4.44000         TIME INC =  0.100000    
 *** RESPONSE EIGENVALUE = 0.4822E-03   OSCILLATION LIMIT = 0.4822E-04
 *** AUTO STEP TIME:  NEXT TIME INC = 0.10000      UNCHANGED

     HT FLOW CONVERGENCE VALUE=  0.3509E+07  CRITERION=  0.1935E+05
    EQUIL ITER   1 COMPLETED.  NEW TRIANG MATRIX.  MAX DOF INC=  0.9203E-02
     HT FLOW CONVERGENCE VALUE=  0.1890E-01  CRITERION=  0.1947E+05 <<< CONVERGED
    >>> SOLUTION CONVERGED AFTER EQUILIBRIUM ITERATION   1
 *** LOAD STEP     5   SUBSTEP     8  COMPLETED.    CUM ITER =     63
 *** TIME =   4.54000         TIME INC =  0.100000    
 *** RESPONSE EIGENVALUE = 0.4823E-03   OSCILLATION LIMIT = 0.4823E-04
 *** AUTO STEP TIME:  NEXT TIME INC = 0.10000      UNCHANGED

     HT FLOW CONVERGENCE VALUE=  0.3509E+07  CRITERION=  0.1935E+05
    EQUIL ITER   1 COMPLETED.  NEW TRIANG MATRIX.  MAX DOF INC=  0.9203E-02
     HT FLOW CONVERGENCE VALUE=  0.1890E-01  CRITERION=  0.1947E+05 <<< CONVERGED
    >>> SOLUTION CONVERGED AFTER EQUILIBRIUM ITERATION   1
 *** LOAD STEP     5   SUBSTEP     9  COMPLETED.    CUM ITER =     64
 *** TIME =   4.64000         TIME INC =  0.100000    
 *** RESPONSE EIGENVALUE = 0.4823E-03   OSCILLATION LIMIT = 0.4823E-04
 *** AUTO STEP TIME:  NEXT TIME INC = 0.10000      UNCHANGED

     HT FLOW CONVERGENCE VALUE=  0.3509E+07  CRITERION=  0.1936E+05
    EQUIL ITER   1 COMPLETED.  NEW TRIANG MATRIX.  MAX DOF INC=  0.9202E-02
     HT FLOW CONVERGENCE VALUE=  0.1889E-01  CRITERION=  0.1948E+05 <<< CONVERGED
    >>> SOLUTION CONVERGED AFTER EQUILIBRIUM ITERATION   1
 *** LOAD STEP     5   SUBSTEP    10  COMPLETED.    CUM ITER =     65
 *** TIME =   4.74000         TIME INC =  0.100000    
 *** RESPONSE EIGENVALUE = 0.4824E-03   OSCILLATION LIMIT = 0.4824E-04
 *** AUTO STEP TIME:  NEXT TIME INC = 0.10000      UNCHANGED

     HT FLOW CONVERGENCE VALUE=  0.3509E+07  CRITERION=  0.1936E+05
    EQUIL ITER   1 COMPLETED.  NEW TRIANG MATRIX.  MAX DOF INC=  0.9202E-02
     HT FLOW CONVERGENCE VALUE=  0.1889E-01  CRITERION=  0.1948E+05 <<< CONVERGED
    >>> SOLUTION CONVERGED AFTER EQUILIBRIUM ITERATION   1
 *** LOAD STEP     5   SUBSTEP    11  COMPLETED.    CUM ITER =     66
 *** TIME =   4.84000         TIME INC =  0.100000    
 *** RESPONSE EIGENVALUE = 0.4824E-03   OSCILLATION LIMIT = 0.4824E-04
 *** AUTO STEP TIME:  NEXT TIME INC = 0.10000      UNCHANGED

     HT FLOW CONVERGENCE VALUE=  0.3508E+07  CRITERION=  0.1937E+05
    EQUIL ITER   1 COMPLETED.  NEW TRIANG MATRIX.  MAX DOF INC=  0.9201E-02
     HT FLOW CONVERGENCE VALUE=  0.1889E-01  CRITERION=  0.1949E+05 <<< CONVERGED
    >>> SOLUTION CONVERGED AFTER EQUILIBRIUM ITERATION   1
 *** LOAD STEP     5   SUBSTEP    12  COMPLETED.    CUM ITER =     67
 *** TIME =   4.94000         TIME INC =  0.100000    
 *** RESPONSE EIGENVALUE = 0.4825E-03   OSCILLATION LIMIT = 0.4825E-04
 *** AUTO TIME STEP:  NEXT TIME INC = 0.60000E-01  DECREASED (FACTOR = 0.6000)

     HT FLOW CONVERGENCE VALUE=  0.3508E+07  CRITERION=  0.1937E+05
    EQUIL ITER   1 COMPLETED.  NEW TRIANG MATRIX.  MAX DOF INC=  0.5521E-02
     HT FLOW CONVERGENCE VALUE=  0.6803E-02  CRITERION=  0.1949E+05 <<< CONVERGED
    >>> SOLUTION CONVERGED AFTER EQUILIBRIUM ITERATION   1
 *** LOAD STEP     5   SUBSTEP    13  COMPLETED.    CUM ITER =     68
 *** TIME =   5.00000         TIME INC =  0.600000E-01
 *** RESPONSE EIGENVALUE = 0.4825E-03   OSCILLATION LIMIT = 0.2895E-04
 ****************************************************
 *************** FINISHED SOLVE FOR LS 5 *************
 ****************************************************
 ******************* SOLVE FOR LS 6 OF 300 ****************

 USE AUTOMATIC TIME STEPPING THIS LOAD STEP

 USE     100 SUBSTEPS INITIALLY THIS LOAD STEP FOR ALL  DEGREES OF FREEDOM
 FOR AUTOMATIC TIME STEPPING:
   USE   1000 SUBSTEPS AS A MAXIMUM
   USE     10 SUBSTEPS AS A MINIMUM

 TIME=  6.0000    

 INCLUDE TRANSIENT EFFECTS FOR  ALL DEGREES OF FREEDOM THIS LOAD STEP

 ERASE THE CURRENT DATABASE OUTPUT CONTROL TABLE.


 WRITE ALL  ITEMS TO THE DATABASE WITH A FREQUENCY OF NONE
   FOR ALL APPLICABLE ENTITIES

 WRITE NSOL ITEMS TO THE DATABASE WITH A FREQUENCY OF ALL 
   FOR ALL APPLICABLE ENTITIES

 WRITE RSOL ITEMS TO THE DATABASE WITH A FREQUENCY OF ALL 
   FOR ALL APPLICABLE ENTITIES

 WRITE FFLU ITEMS TO THE DATABASE WITH A FREQUENCY OF ALL 
   FOR ALL APPLICABLE ENTITIES

 WRITE MISC ITEMS TO THE DATABASE WITH A FREQUENCY OF ALL 
   FOR THE ENTITIES DEFINED BY COMPONENT _ELMISC 

 CONVERGENCE ON HEAT BASED ON THE NORM OF THE N-R LOAD
   WITH A TOLERANCE OF 0.1000E-02 AND A MINIMUM REFERENCE VALUE OF  10.00    
   USING THE L2 NORM (CHECK THE SRSS VALUE)

 *****  ANSYS SOLVE    COMMAND  *****

 *** NOTE ***                            CP =      22.542   TIME= 21:53:10
 This nonlinear analysis defaults to using the full Newton-Raphson       
 solution procedure.  This can be modified using the NROPT command.      

 *** ANSYS - ENGINEERING ANALYSIS SYSTEM  RELEASE Release 19.2     19.2     ***
 DISTRIBUTED ANSYS Academic Teaching Introductory              

 01055371  VERSION=WINDOWS x64   21:53:10  JAN 29, 2019 CP=     22.573

 unsaved_project--Transient Thermal (A5)                                       



                      L O A D   S T E P   O P T I O N S

   LOAD STEP NUMBER. . . . . . . . . . . . . . . .     6
   TIME AT END OF THE LOAD STEP. . . . . . . . . .  6.0000    
   AUTOMATIC TIME STEPPING . . . . . . . . . . . .    ON
      INITIAL NUMBER OF SUBSTEPS . . . . . . . . .   100
      MAXIMUM NUMBER OF SUBSTEPS . . . . . . . . .  1000
      MINIMUM NUMBER OF SUBSTEPS . . . . . . . . .    10
   MAXIMUM NUMBER OF EQUILIBRIUM ITERATIONS. . . .    15
   STEP CHANGE BOUNDARY CONDITIONS . . . . . . . .   YES
   TRANSIENT (INERTIA) EFFECTS
      THERMAL DOFS . . . . . . . . . . . . . . . .    ON
   TRANSIENT INTEGRATION PARAMETERS
      THETA. . . . . . . . . . . . . . . . . . . .  1.0000    
      OSCILLATION LIMIT CRITERION. . . . . . . . . 0.50000    
      TOLERANCE. . . . . . . . . . . . . . . . . .  0.0000    
   TERMINATE ANALYSIS IF NOT CONVERGED . . . . . .YES (EXIT)  
   CONVERGENCE CONTROLS
      LABEL   REFERENCE    TOLERANCE  NORM     MINREF
       HEAT    0.000       0.1000E-02   2      10.00    
   PRINT OUTPUT CONTROLS . . . . . . . . . . . . .NO PRINTOUT
   DATABASE OUTPUT CONTROLS
      ITEM     FREQUENCY   COMPONENT
       ALL       NONE               
      NSOL        ALL               
      RSOL        ALL               
      FFLU        ALL               
      MISC        ALL       _ELMISC 


 SOLUTION MONITORING INFO IS WRITTEN TO FILE= file.mntr                                                                                                                                                                                                                                                           

     HT FLOW CONVERGENCE VALUE=  0.3508E+07  CRITERION=  0.1937E+05
    EQUIL ITER   1 COMPLETED.  NEW TRIANG MATRIX.  MAX DOF INC=  0.9201E-03
     HT FLOW CONVERGENCE VALUE=  0.2428E-03  CRITERION=  0.1949E+05 <<< CONVERGED
    >>> SOLUTION CONVERGED AFTER EQUILIBRIUM ITERATION   1
 *** LOAD STEP     6   SUBSTEP     1  COMPLETED.    CUM ITER =     69
 *** TIME =   5.01000         TIME INC =  0.100000E-01
 *** RESPONSE EIGENVALUE = 0.4825E-03   OSCILLATION LIMIT = 0.4825E-05
 *** AUTO STEP TIME:  NEXT TIME INC = 0.10000E-01  UNCHANGED

     HT FLOW CONVERGENCE VALUE=  0.3508E+07  CRITERION=  0.1937E+05
    EQUIL ITER   1 COMPLETED.  NEW TRIANG MATRIX.  MAX DOF INC=  0.9201E-03
     HT FLOW CONVERGENCE VALUE=  0.2433E-03  CRITERION=  0.1949E+05 <<< CONVERGED
    >>> SOLUTION CONVERGED AFTER EQUILIBRIUM ITERATION   1
 *** LOAD STEP     6   SUBSTEP     2  COMPLETED.    CUM ITER =     70
 *** TIME =   5.02000         TIME INC =  0.100000E-01
 *** RESPONSE EIGENVALUE = 0.4825E-03   OSCILLATION LIMIT = 0.4825E-05
 *** AUTO TIME STEP:  NEXT TIME INC = 0.30000E-01  INCREASED (FACTOR = 3.0000)

     HT FLOW CONVERGENCE VALUE=  0.3508E+07  CRITERION=  0.1938E+05
    EQUIL ITER   1 COMPLETED.  NEW TRIANG MATRIX.  MAX DOF INC=  0.2760E-02
     HT FLOW CONVERGENCE VALUE=  0.1706E-02  CRITERION=  0.1950E+05 <<< CONVERGED
    >>> SOLUTION CONVERGED AFTER EQUILIBRIUM ITERATION   1
 *** LOAD STEP     6   SUBSTEP     3  COMPLETED.    CUM ITER =     71
 *** TIME =   5.05000         TIME INC =  0.300000E-01
 *** RESPONSE EIGENVALUE = 0.4825E-03   OSCILLATION LIMIT = 0.1448E-04
 *** AUTO TIME STEP:  NEXT TIME INC = 0.90000E-01  INCREASED (FACTOR = 3.0000)

     HT FLOW CONVERGENCE VALUE=  0.3508E+07  CRITERION=  0.1938E+05
    EQUIL ITER   1 COMPLETED.  NEW TRIANG MATRIX.  MAX DOF INC=  0.8280E-02
     HT FLOW CONVERGENCE VALUE=  0.1530E-01  CRITERION=  0.1950E+05 <<< CONVERGED
    >>> SOLUTION CONVERGED AFTER EQUILIBRIUM ITERATION   1
 *** LOAD STEP     6   SUBSTEP     4  COMPLETED.    CUM ITER =     72
 *** TIME =   5.14000         TIME INC =  0.900000E-01
 *** RESPONSE EIGENVALUE = 0.4826E-03   OSCILLATION LIMIT = 0.4343E-04
 *** AUTO TIME STEP:  NEXT TIME INC = 0.10000      INCREASED (FACTOR = 1.1111)

     HT FLOW CONVERGENCE VALUE=  0.3508E+07  CRITERION=  0.1938E+05
    EQUIL ITER   1 COMPLETED.  NEW TRIANG MATRIX.  MAX DOF INC=  0.9200E-02
     HT FLOW CONVERGENCE VALUE=  0.1889E-01  CRITERION=  0.1950E+05 <<< CONVERGED
    >>> SOLUTION CONVERGED AFTER EQUILIBRIUM ITERATION   1
 *** LOAD STEP     6   SUBSTEP     5  COMPLETED.    CUM ITER =     73
 *** TIME =   5.24000         TIME INC =  0.100000    
 *** RESPONSE EIGENVALUE = 0.4826E-03   OSCILLATION LIMIT = 0.4826E-04
 *** AUTO STEP TIME:  NEXT TIME INC = 0.10000      UNCHANGED

     HT FLOW CONVERGENCE VALUE=  0.3508E+07  CRITERION=  0.1939E+05
    EQUIL ITER   1 COMPLETED.  NEW TRIANG MATRIX.  MAX DOF INC=  0.9200E-02
     HT FLOW CONVERGENCE VALUE=  0.1889E-01  CRITERION=  0.1951E+05 <<< CONVERGED
    >>> SOLUTION CONVERGED AFTER EQUILIBRIUM ITERATION   1
 *** LOAD STEP     6   SUBSTEP     6  COMPLETED.    CUM ITER =     74
 *** TIME =   5.34000         TIME INC =  0.100000    
 *** RESPONSE EIGENVALUE = 0.4826E-03   OSCILLATION LIMIT = 0.4826E-04
 *** AUTO STEP TIME:  NEXT TIME INC = 0.10000      UNCHANGED

     HT FLOW CONVERGENCE VALUE=  0.3508E+07  CRITERION=  0.1939E+05
    EQUIL ITER   1 COMPLETED.  NEW TRIANG MATRIX.  MAX DOF INC=  0.9199E-02
     HT FLOW CONVERGENCE VALUE=  0.1889E-01  CRITERION=  0.1951E+05 <<< CONVERGED
    >>> SOLUTION CONVERGED AFTER EQUILIBRIUM ITERATION   1
 *** LOAD STEP     6   SUBSTEP     7  COMPLETED.    CUM ITER =     75
 *** TIME =   5.44000         TIME INC =  0.100000    
 *** RESPONSE EIGENVALUE = 0.4827E-03   OSCILLATION LIMIT = 0.4827E-04
 *** AUTO STEP TIME:  NEXT TIME INC = 0.10000      UNCHANGED

     HT FLOW CONVERGENCE VALUE=  0.3507E+07  CRITERION=  0.1940E+05
    EQUIL ITER   1 COMPLETED.  NEW TRIANG MATRIX.  MAX DOF INC=  0.9199E-02
     HT FLOW CONVERGENCE VALUE=  0.1889E-01  CRITERION=  0.1952E+05 <<< CONVERGED
    >>> SOLUTION CONVERGED AFTER EQUILIBRIUM ITERATION   1
 *** LOAD STEP     6   SUBSTEP     8  COMPLETED.    CUM ITER =     76
 *** TIME =   5.54000         TIME INC =  0.100000    
 *** RESPONSE EIGENVALUE = 0.4827E-03   OSCILLATION LIMIT = 0.4827E-04
 *** AUTO STEP TIME:  NEXT TIME INC = 0.10000      UNCHANGED

     HT FLOW CONVERGENCE VALUE=  0.3507E+07  CRITERION=  0.1940E+05
    EQUIL ITER   1 COMPLETED.  NEW TRIANG MATRIX.  MAX DOF INC=  0.9198E-02
     HT FLOW CONVERGENCE VALUE=  0.1889E-01  CRITERION=  0.1952E+05 <<< CONVERGED
    >>> SOLUTION CONVERGED AFTER EQUILIBRIUM ITERATION   1
 *** LOAD STEP     6   SUBSTEP     9  COMPLETED.    CUM ITER =     77
 *** TIME =   5.64000         TIME INC =  0.100000    
 *** RESPONSE EIGENVALUE = 0.4828E-03   OSCILLATION LIMIT = 0.4828E-04
 *** AUTO STEP TIME:  NEXT TIME INC = 0.10000      UNCHANGED

     HT FLOW CONVERGENCE VALUE=  0.3507E+07  CRITERION=  0.1941E+05
    EQUIL ITER   1 COMPLETED.  NEW TRIANG MATRIX.  MAX DOF INC=  0.9198E-02
     HT FLOW CONVERGENCE VALUE=  0.1889E-01  CRITERION=  0.1953E+05 <<< CONVERGED
    >>> SOLUTION CONVERGED AFTER EQUILIBRIUM ITERATION   1
 *** LOAD STEP     6   SUBSTEP    10  COMPLETED.    CUM ITER =     78
 *** TIME =   5.74000         TIME INC =  0.100000    
 *** RESPONSE EIGENVALUE = 0.4828E-03   OSCILLATION LIMIT = 0.4828E-04
 *** AUTO STEP TIME:  NEXT TIME INC = 0.10000      UNCHANGED

     HT FLOW CONVERGENCE VALUE=  0.3507E+07  CRITERION=  0.1941E+05
    EQUIL ITER   1 COMPLETED.  NEW TRIANG MATRIX.  MAX DOF INC=  0.9197E-02
     HT FLOW CONVERGENCE VALUE=  0.1889E-01  CRITERION=  0.1953E+05 <<< CONVERGED
    >>> SOLUTION CONVERGED AFTER EQUILIBRIUM ITERATION   1
 *** LOAD STEP     6   SUBSTEP    11  COMPLETED.    CUM ITER =     79
 *** TIME =   5.84000         TIME INC =  0.100000    
 *** RESPONSE EIGENVALUE = 0.4829E-03   OSCILLATION LIMIT = 0.4829E-04
 *** AUTO STEP TIME:  NEXT TIME INC = 0.10000      UNCHANGED

     HT FLOW CONVERGENCE VALUE=  0.3507E+07  CRITERION=  0.1942E+05
    EQUIL ITER   1 COMPLETED.  NEW TRIANG MATRIX.  MAX DOF INC=  0.9197E-02
     HT FLOW CONVERGENCE VALUE=  0.1889E-01  CRITERION=  0.1954E+05 <<< CONVERGED
    >>> SOLUTION CONVERGED AFTER EQUILIBRIUM ITERATION   1
 *** LOAD STEP     6   SUBSTEP    12  COMPLETED.    CUM ITER =     80
 *** TIME =   5.94000         TIME INC =  0.100000    
 *** RESPONSE EIGENVALUE = 0.4829E-03   OSCILLATION LIMIT = 0.4829E-04
 *** AUTO TIME STEP:  NEXT TIME INC = 0.60000E-01  DECREASED (FACTOR = 0.6000)

     HT FLOW CONVERGENCE VALUE=  0.3507E+07  CRITERION=  0.1942E+05
    EQUIL ITER   1 COMPLETED.  NEW TRIANG MATRIX.  MAX DOF INC=  0.5518E-02
     HT FLOW CONVERGENCE VALUE=  0.6800E-02  CRITERION=  0.1954E+05 <<< CONVERGED
    >>> SOLUTION CONVERGED AFTER EQUILIBRIUM ITERATION   1
 *** LOAD STEP     6   SUBSTEP    13  COMPLETED.    CUM ITER =     81
 *** TIME =   6.00000         TIME INC =  0.600000E-01
 *** RESPONSE EIGENVALUE = 0.4829E-03   OSCILLATION LIMIT = 0.2898E-04
 ****************************************************
 *************** FINISHED SOLVE FOR LS 6 *************
 ****************************************************
[...]

     HT FLOW CONVERGENCE VALUE=  0.2986E+07  CRITERION=  0.3905E+05
    EQUIL ITER   1 COMPLETED.  NEW TRIANG MATRIX.  MAX DOF INC=  0.7831E-02
     HT FLOW CONVERGENCE VALUE=  0.1610E-01  CRITERION=  0.3908E+05 <<< CONVERGED
    >>> SOLUTION CONVERGED AFTER EQUILIBRIUM ITERATION   1
 *** LOAD STEP   299   SUBSTEP     9  COMPLETED.    CUM ITER =   3886
 *** TIME =   298.640         TIME INC =  0.100000    
 *** RESPONSE EIGENVALUE = 0.6157E-03   OSCILLATION LIMIT = 0.6157E-04
 *** AUTO STEP TIME:  NEXT TIME INC = 0.10000      UNCHANGED

     HT FLOW CONVERGENCE VALUE=  0.2986E+07  CRITERION=  0.3906E+05
    EQUIL ITER   1 COMPLETED.  NEW TRIANG MATRIX.  MAX DOF INC=  0.7831E-02
     HT FLOW CONVERGENCE VALUE=  0.1610E-01  CRITERION=  0.3909E+05 <<< CONVERGED
    >>> SOLUTION CONVERGED AFTER EQUILIBRIUM ITERATION   1
 *** LOAD STEP   299   SUBSTEP    10  COMPLETED.    CUM ITER =   3887
 *** TIME =   298.740         TIME INC =  0.100000    
 *** RESPONSE EIGENVALUE = 0.6158E-03   OSCILLATION LIMIT = 0.6158E-04
 *** AUTO STEP TIME:  NEXT TIME INC = 0.10000      UNCHANGED

     HT FLOW CONVERGENCE VALUE=  0.2986E+07  CRITERION=  0.3907E+05
    EQUIL ITER   1 COMPLETED.  NEW TRIANG MATRIX.  MAX DOF INC=  0.7830E-02
     HT FLOW CONVERGENCE VALUE=  0.1610E-01  CRITERION=  0.3910E+05 <<< CONVERGED
    >>> SOLUTION CONVERGED AFTER EQUILIBRIUM ITERATION   1
 *** LOAD STEP   299   SUBSTEP    11  COMPLETED.    CUM ITER =   3888
 *** TIME =   298.840         TIME INC =  0.100000    
 *** RESPONSE EIGENVALUE = 0.6158E-03   OSCILLATION LIMIT = 0.6158E-04
 *** AUTO STEP TIME:  NEXT TIME INC = 0.10000      UNCHANGED

     HT FLOW CONVERGENCE VALUE=  0.2985E+07  CRITERION=  0.3908E+05
    EQUIL ITER   1 COMPLETED.  NEW TRIANG MATRIX.  MAX DOF INC=  0.7830E-02
     HT FLOW CONVERGENCE VALUE=  0.1610E-01  CRITERION=  0.3911E+05 <<< CONVERGED
    >>> SOLUTION CONVERGED AFTER EQUILIBRIUM ITERATION   1
 *** LOAD STEP   299   SUBSTEP    12  COMPLETED.    CUM ITER =   3889
 *** TIME =   298.940         TIME INC =  0.100000    
 *** RESPONSE EIGENVALUE = 0.6159E-03   OSCILLATION LIMIT = 0.6159E-04
 *** AUTO TIME STEP:  NEXT TIME INC = 0.60000E-01  DECREASED (FACTOR = 0.6000)

     HT FLOW CONVERGENCE VALUE=  0.2985E+07  CRITERION=  0.3909E+05
    EQUIL ITER   1 COMPLETED.  NEW TRIANG MATRIX.  MAX DOF INC=  0.4698E-02
     HT FLOW CONVERGENCE VALUE=  0.5802E-02  CRITERION=  0.3911E+05 <<< CONVERGED
    >>> SOLUTION CONVERGED AFTER EQUILIBRIUM ITERATION   1
 *** LOAD STEP   299   SUBSTEP    13  COMPLETED.    CUM ITER =   3890
 *** TIME =   299.000         TIME INC =  0.600000E-01
 *** RESPONSE EIGENVALUE = 0.6159E-03   OSCILLATION LIMIT = 0.3695E-04
 ****************************************************
 *************** FINISHED SOLVE FOR LS 299 *************
 ****************************************************
 ******************* SOLVE FOR LS 300 OF 300 ****************

 USE AUTOMATIC TIME STEPPING THIS LOAD STEP

 USE     100 SUBSTEPS INITIALLY THIS LOAD STEP FOR ALL  DEGREES OF FREEDOM
 FOR AUTOMATIC TIME STEPPING:
   USE   1000 SUBSTEPS AS A MAXIMUM
   USE     10 SUBSTEPS AS A MINIMUM

 TIME=  300.00    

 INCLUDE TRANSIENT EFFECTS FOR  ALL DEGREES OF FREEDOM THIS LOAD STEP

 ERASE THE CURRENT DATABASE OUTPUT CONTROL TABLE.


 WRITE ALL  ITEMS TO THE DATABASE WITH A FREQUENCY OF NONE
   FOR ALL APPLICABLE ENTITIES

 WRITE NSOL ITEMS TO THE DATABASE WITH A FREQUENCY OF ALL 
   FOR ALL APPLICABLE ENTITIES

 WRITE RSOL ITEMS TO THE DATABASE WITH A FREQUENCY OF ALL 
   FOR ALL APPLICABLE ENTITIES

 WRITE FFLU ITEMS TO THE DATABASE WITH A FREQUENCY OF ALL 
   FOR ALL APPLICABLE ENTITIES

 WRITE MISC ITEMS TO THE DATABASE WITH A FREQUENCY OF ALL 
   FOR THE ENTITIES DEFINED BY COMPONENT _ELMISC 

 CONVERGENCE ON HEAT BASED ON THE NORM OF THE N-R LOAD
   WITH A TOLERANCE OF 0.1000E-02 AND A MINIMUM REFERENCE VALUE OF  10.00    
   USING THE L2 NORM (CHECK THE SRSS VALUE)

 *****  ANSYS SOLVE    COMMAND  *****

 *** NOTE ***                            CP =    1154.345   TIME= 22:20:17
 This nonlinear analysis defaults to using the full Newton-Raphson       
 solution procedure.  This can be modified using the NROPT command.      

 *** ANSYS - ENGINEERING ANALYSIS SYSTEM  RELEASE Release 19.2     19.2     ***
 DISTRIBUTED ANSYS Academic Teaching Introductory              

 01055371  VERSION=WINDOWS x64   22:20:17  JAN 29, 2019 CP=   1154.376

 unsaved_project--Transient Thermal (A5)                                       



                      L O A D   S T E P   O P T I O N S

   LOAD STEP NUMBER. . . . . . . . . . . . . . . .   300
   TIME AT END OF THE LOAD STEP. . . . . . . . . .  300.00    
   AUTOMATIC TIME STEPPING . . . . . . . . . . . .    ON
      INITIAL NUMBER OF SUBSTEPS . . . . . . . . .   100
      MAXIMUM NUMBER OF SUBSTEPS . . . . . . . . .  1000
      MINIMUM NUMBER OF SUBSTEPS . . . . . . . . .    10
   MAXIMUM NUMBER OF EQUILIBRIUM ITERATIONS. . . .    15
   STEP CHANGE BOUNDARY CONDITIONS . . . . . . . .   YES
   TRANSIENT (INERTIA) EFFECTS
      THERMAL DOFS . . . . . . . . . . . . . . . .    ON
   TRANSIENT INTEGRATION PARAMETERS
      THETA. . . . . . . . . . . . . . . . . . . .  1.0000    
      OSCILLATION LIMIT CRITERION. . . . . . . . . 0.50000    
      TOLERANCE. . . . . . . . . . . . . . . . . .  0.0000    
   TERMINATE ANALYSIS IF NOT CONVERGED . . . . . .YES (EXIT)  
   CONVERGENCE CONTROLS
      LABEL   REFERENCE    TOLERANCE  NORM     MINREF
       HEAT    0.000       0.1000E-02   2      10.00    
   PRINT OUTPUT CONTROLS . . . . . . . . . . . . .NO PRINTOUT
   DATABASE OUTPUT CONTROLS
      ITEM     FREQUENCY   COMPONENT
       ALL       NONE               
      NSOL        ALL               
      RSOL        ALL               
      FFLU        ALL               
      MISC        ALL       _ELMISC 


 SOLUTION MONITORING INFO IS WRITTEN TO FILE= file.mntr                                                                                                                                                                                                                                                           

     HT FLOW CONVERGENCE VALUE=  0.2985E+07  CRITERION=  0.3909E+05
    EQUIL ITER   1 COMPLETED.  NEW TRIANG MATRIX.  MAX DOF INC=  0.7829E-03
     HT FLOW CONVERGENCE VALUE=  0.3384E-03  CRITERION=  0.3911E+05 <<< CONVERGED
    >>> SOLUTION CONVERGED AFTER EQUILIBRIUM ITERATION   1
 *** LOAD STEP   300   SUBSTEP     1  COMPLETED.    CUM ITER =   3891
 *** TIME =   299.010         TIME INC =  0.100000E-01
 *** RESPONSE EIGENVALUE = 0.6159E-03   OSCILLATION LIMIT = 0.6159E-05
 *** AUTO STEP TIME:  NEXT TIME INC = 0.10000E-01  UNCHANGED

     HT FLOW CONVERGENCE VALUE=  0.2985E+07  CRITERION=  0.3909E+05
    EQUIL ITER   1 COMPLETED.  NEW TRIANG MATRIX.  MAX DOF INC=  0.7829E-03
     HT FLOW CONVERGENCE VALUE=  0.3391E-03  CRITERION=  0.3911E+05 <<< CONVERGED
    >>> SOLUTION CONVERGED AFTER EQUILIBRIUM ITERATION   1
 *** LOAD STEP   300   SUBSTEP     2  COMPLETED.    CUM ITER =   3892
 *** TIME =   299.020         TIME INC =  0.100000E-01
 *** RESPONSE EIGENVALUE = 0.6159E-03   OSCILLATION LIMIT = 0.6159E-05
 *** AUTO TIME STEP:  NEXT TIME INC = 0.30000E-01  INCREASED (FACTOR = 3.0000)

     HT FLOW CONVERGENCE VALUE=  0.2985E+07  CRITERION=  0.3909E+05
    EQUIL ITER   1 COMPLETED.  NEW TRIANG MATRIX.  MAX DOF INC=  0.2349E-02
     HT FLOW CONVERGENCE VALUE=  0.1480E-02  CRITERION=  0.3911E+05 <<< CONVERGED
    >>> SOLUTION CONVERGED AFTER EQUILIBRIUM ITERATION   1
 *** LOAD STEP   300   SUBSTEP     3  COMPLETED.    CUM ITER =   3893
 *** TIME =   299.050         TIME INC =  0.300000E-01
 *** RESPONSE EIGENVALUE = 0.6159E-03   OSCILLATION LIMIT = 0.1848E-04
 *** AUTO TIME STEP:  NEXT TIME INC = 0.90000E-01  INCREASED (FACTOR = 3.0000)

     HT FLOW CONVERGENCE VALUE=  0.2985E+07  CRITERION=  0.3910E+05
    EQUIL ITER   1 COMPLETED.  NEW TRIANG MATRIX.  MAX DOF INC=  0.7046E-02
     HT FLOW CONVERGENCE VALUE=  0.1304E-01  CRITERION=  0.3912E+05 <<< CONVERGED
    >>> SOLUTION CONVERGED AFTER EQUILIBRIUM ITERATION   1
 *** LOAD STEP   300   SUBSTEP     4  COMPLETED.    CUM ITER =   3894
 *** TIME =   299.140         TIME INC =  0.900000E-01
 *** RESPONSE EIGENVALUE = 0.6159E-03   OSCILLATION LIMIT = 0.5543E-04
 *** AUTO TIME STEP:  NEXT TIME INC = 0.10000      INCREASED (FACTOR = 1.1111)

     HT FLOW CONVERGENCE VALUE=  0.2985E+07  CRITERION=  0.3910E+05
    EQUIL ITER   1 COMPLETED.  NEW TRIANG MATRIX.  MAX DOF INC=  0.7828E-02
     HT FLOW CONVERGENCE VALUE=  0.1610E-01  CRITERION=  0.3913E+05 <<< CONVERGED
    >>> SOLUTION CONVERGED AFTER EQUILIBRIUM ITERATION   1
 *** LOAD STEP   300   SUBSTEP     5  COMPLETED.    CUM ITER =   3895
 *** TIME =   299.240         TIME INC =  0.100000    
 *** RESPONSE EIGENVALUE = 0.6160E-03   OSCILLATION LIMIT = 0.6160E-04
 *** AUTO STEP TIME:  NEXT TIME INC = 0.10000      UNCHANGED

     HT FLOW CONVERGENCE VALUE=  0.2985E+07  CRITERION=  0.3911E+05
    EQUIL ITER   1 COMPLETED.  NEW TRIANG MATRIX.  MAX DOF INC=  0.7828E-02
     HT FLOW CONVERGENCE VALUE=  0.1610E-01  CRITERION=  0.3914E+05 <<< CONVERGED
    >>> SOLUTION CONVERGED AFTER EQUILIBRIUM ITERATION   1
 *** LOAD STEP   300   SUBSTEP     6  COMPLETED.    CUM ITER =   3896
 *** TIME =   299.340         TIME INC =  0.100000    
 *** RESPONSE EIGENVALUE = 0.6160E-03   OSCILLATION LIMIT = 0.6160E-04
 *** AUTO STEP TIME:  NEXT TIME INC = 0.10000      UNCHANGED

     HT FLOW CONVERGENCE VALUE=  0.2985E+07  CRITERION=  0.3912E+05
    EQUIL ITER   1 COMPLETED.  NEW TRIANG MATRIX.  MAX DOF INC=  0.7827E-02
     HT FLOW CONVERGENCE VALUE=  0.1609E-01  CRITERION=  0.3915E+05 <<< CONVERGED
    >>> SOLUTION CONVERGED AFTER EQUILIBRIUM ITERATION   1
 *** LOAD STEP   300   SUBSTEP     7  COMPLETED.    CUM ITER =   3897
 *** TIME =   299.440         TIME INC =  0.100000    
 *** RESPONSE EIGENVALUE = 0.6161E-03   OSCILLATION LIMIT = 0.6161E-04
 *** AUTO STEP TIME:  NEXT TIME INC = 0.10000      UNCHANGED

     HT FLOW CONVERGENCE VALUE=  0.2984E+07  CRITERION=  0.3913E+05
    EQUIL ITER   1 COMPLETED.  NEW TRIANG MATRIX.  MAX DOF INC=  0.7827E-02
     HT FLOW CONVERGENCE VALUE=  0.1609E-01  CRITERION=  0.3915E+05 <<< CONVERGED
    >>> SOLUTION CONVERGED AFTER EQUILIBRIUM ITERATION   1
 *** LOAD STEP   300   SUBSTEP     8  COMPLETED.    CUM ITER =   3898
 *** TIME =   299.540         TIME INC =  0.100000    
 *** RESPONSE EIGENVALUE = 0.6161E-03   OSCILLATION LIMIT = 0.6161E-04
 *** AUTO STEP TIME:  NEXT TIME INC = 0.10000      UNCHANGED

     HT FLOW CONVERGENCE VALUE=  0.2984E+07  CRITERION=  0.3913E+05
    EQUIL ITER   1 COMPLETED.  NEW TRIANG MATRIX.  MAX DOF INC=  0.7826E-02
     HT FLOW CONVERGENCE VALUE=  0.1609E-01  CRITERION=  0.3916E+05 <<< CONVERGED
    >>> SOLUTION CONVERGED AFTER EQUILIBRIUM ITERATION   1
 *** LOAD STEP   300   SUBSTEP     9  COMPLETED.    CUM ITER =   3899
 *** TIME =   299.640         TIME INC =  0.100000    
 *** RESPONSE EIGENVALUE = 0.6162E-03   OSCILLATION LIMIT = 0.6162E-04
 *** AUTO STEP TIME:  NEXT TIME INC = 0.10000      UNCHANGED

     HT FLOW CONVERGENCE VALUE=  0.2984E+07  CRITERION=  0.3914E+05
    EQUIL ITER   1 COMPLETED.  NEW TRIANG MATRIX.  MAX DOF INC=  0.7826E-02
     HT FLOW CONVERGENCE VALUE=  0.1609E-01  CRITERION=  0.3917E+05 <<< CONVERGED
    >>> SOLUTION CONVERGED AFTER EQUILIBRIUM ITERATION   1
 *** LOAD STEP   300   SUBSTEP    10  COMPLETED.    CUM ITER =   3900
 *** TIME =   299.740         TIME INC =  0.100000    
 *** RESPONSE EIGENVALUE = 0.6162E-03   OSCILLATION LIMIT = 0.6162E-04
 *** AUTO STEP TIME:  NEXT TIME INC = 0.10000      UNCHANGED

     HT FLOW CONVERGENCE VALUE=  0.2984E+07  CRITERION=  0.3915E+05
    EQUIL ITER   1 COMPLETED.  NEW TRIANG MATRIX.  MAX DOF INC=  0.7825E-02
     HT FLOW CONVERGENCE VALUE=  0.1609E-01  CRITERION=  0.3918E+05 <<< CONVERGED
    >>> SOLUTION CONVERGED AFTER EQUILIBRIUM ITERATION   1
 *** LOAD STEP   300   SUBSTEP    11  COMPLETED.    CUM ITER =   3901
 *** TIME =   299.840         TIME INC =  0.100000    
 *** RESPONSE EIGENVALUE = 0.6163E-03   OSCILLATION LIMIT = 0.6163E-04
 *** AUTO STEP TIME:  NEXT TIME INC = 0.10000      UNCHANGED

     HT FLOW CONVERGENCE VALUE=  0.2984E+07  CRITERION=  0.3916E+05
    EQUIL ITER   1 COMPLETED.  NEW TRIANG MATRIX.  MAX DOF INC=  0.7825E-02
     HT FLOW CONVERGENCE VALUE=  0.1609E-01  CRITERION=  0.3919E+05 <<< CONVERGED
    >>> SOLUTION CONVERGED AFTER EQUILIBRIUM ITERATION   1
 *** LOAD STEP   300   SUBSTEP    12  COMPLETED.    CUM ITER =   3902
 *** TIME =   299.940         TIME INC =  0.100000    
 *** RESPONSE EIGENVALUE = 0.6163E-03   OSCILLATION LIMIT = 0.6163E-04
 *** AUTO TIME STEP:  NEXT TIME INC = 0.60000E-01  DECREASED (FACTOR = 0.6000)

     HT FLOW CONVERGENCE VALUE=  0.2983E+07  CRITERION=  0.3917E+05
    EQUIL ITER   1 COMPLETED.  NEW TRIANG MATRIX.  MAX DOF INC=  0.4695E-02
     HT FLOW CONVERGENCE VALUE=  0.5797E-02  CRITERION=  0.3919E+05 <<< CONVERGED
    >>> SOLUTION CONVERGED AFTER EQUILIBRIUM ITERATION   1
 *** LOAD STEP   300   SUBSTEP    13  COMPLETED.    CUM ITER =   3903
 *** TIME =   300.000         TIME INC =  0.600000E-01
 *** RESPONSE EIGENVALUE = 0.6163E-03   OSCILLATION LIMIT = 0.3698E-04
 ****************************************************
 *************** FINISHED SOLVE FOR LS 300 *************

 *GET  _WALLASOL  FROM  ACTI  ITEM=TIME WALL  VALUE=  22.3391667    

 FINISH SOLUTION PROCESSING


 ***** ROUTINE COMPLETED *****  CP =      1213.844



 *** ANSYS - ENGINEERING ANALYSIS SYSTEM  RELEASE Release 19.2     19.2     ***
 DISTRIBUTED ANSYS Academic Teaching Introductory              

 01055371  VERSION=WINDOWS x64   22:21:21  JAN 29, 2019 CP=   1213.859

 unsaved_project--Transient Thermal (A5)                                       



          ***** ANSYS RESULTS INTERPRETATION (POST1) *****

 *** NOTE ***                            CP =    1213.859   TIME= 22:21:21
 Reading results into the database (SET command) will update the current 
 displacement and force boundary conditions in the database with the     
 values from the results file for that load set.  Note that any          
 subsequent solutions will use these values unless action is taken to    
 either SAVE the current values or not overwrite them (/EXIT,NOSAVE).    

 Set Encoding of XML File to:ISO-8859-1

 Set Output of XML File to:
     PARM,     ,     ,     ,     ,     ,     ,     ,     ,     ,     ,     ,
         ,     ,     ,     ,     ,     ,     ,

 DATABASE WRITTEN ON FILE  parm.xml                                                                                                                                                                                                                                                            

 EXIT THE ANSYS POST1 DATABASE PROCESSOR


 ***** ROUTINE COMPLETED *****  CP =      1213.859



 PRINTOUT RESUMED BY /GOP

 *GET  _WALLDONE  FROM  ACTI  ITEM=TIME WALL  VALUE=  22.3558333    

 PARAMETER _PREPTIME =     0.000000000    

 PARAMETER _SOLVTIME =     1653.000000    

 PARAMETER _POSTTIME =     60.00000000    

 PARAMETER _TOTALTIM =     1713.000000    

 EXIT ANSYS WITHOUT SAVING DATABASE


 NUMBER OF WARNING MESSAGES ENCOUNTERED=          1
 NUMBER OF ERROR   MESSAGES ENCOUNTERED=          0

 *** WARNING ***                         CP =    1214.109   TIME= 22:21:22
 During this session the elapsed time exceeds the CPU time by 41%.       
 Often this indicates either a lack of physical memory (RAM) required    
 to efficiently handle this simulation or it indicates a particularly    
 slow hard drive configuration.  This simulation can be expected to run  
 faster on identical hardware if additional RAM or a faster hard drive   
 configuration is made available.  For more details, please see the      
 ANSYS Performance Guide which is part of the ANSYS Help system.         

+--------- D I S T R I B U T E D   A N S Y S   S T A T I S T I C S ------------+

Release: Release 19.2       Build: 19.2       Update: UP20180808   Platform: WINDOWS x64 
Date Run: 01/29/2019   Time: 22:21     Process ID: 3896
Operating System: Windows 7 Service Pack 1 (Build: 7601)

Processor Model:        Intel(R) Core(TM) i5-3320M CPU @ 2.60GHz

Compiler: Intel(R) FORTRAN Compiler Version 17.0.4  (Build: 20170411)
          Intel(R) C/C++ Compiler Version 17.0.4  (Build: 20170411)
          Intel(R) Math Kernel Library Version 2017.0.3 Product Build 20170413

Number of machines requested            :    1
Total number of cores available         :    4
Number of physical cores available      :    2
Number of processes requested           :    2
Number of threads per process requested :    1
Total number of cores requested         :    2 (Distributed Memory Parallel)               
MPI Type: INTELMPI
MPI Version: Intel(R) MPI Library 2017 Update 3 for Windows* OS


GPU Acceleration: Not Requested

Job Name: file0
Input File: dummy.dat

  Core                Machine Name   Working Directory
 -----------------------------------------------------
     0                    Satan-PC   C:\Users\Satan\AppData\Local\Temp\WB_SATAN-PC_Satan_6516_2\_ProjectScratch\ScrC011
     1                    Satan-PC   C:\Users\Satan\AppData\Local\Temp\WB_SATAN-PC_Satan_6516_2\_ProjectScratch\ScrC011
 
Latency time from master to core     1 =    3.825 microseconds
 
Communication speed from master to core     1 =  1816.31 MB/sec

Total CPU time for main thread                    :     1213.7 seconds
Total CPU time summed for all threads             :     1214.1 seconds

Elapsed time spent pre-processing model (/PREP7)  :        0.1 seconds
Elapsed time spent solution - preprocessing       :       27.1 seconds
Elapsed time spent computing solution             :     1624.7 seconds
Elapsed time spent solution - postprocessing      :       60.2 seconds
Elapsed time spent post-processing model (/POST1) :        0.0 seconds
 
Equation solver used                              :            Sparse (symmetric)
Equation solver effective I/O rate                :        4.0 GB/sec

Maximum total memory used                         :      283.0 MB
Maximum total memory allocated                    :     3136.0 MB
Total physical memory available                   :          8 GB

Total amount of I/O written to disk               :       16.5 GB
Total amount of I/O read from disk                :       10.8 GB

+------ E N D   D I S T R I B U T E D   A N S Y S   S T A T I S T I C S -------+


 *---------------------------------------------------------------------------*
 |                                                                           |
 |                       DISTRIBUTED ANSYS RUN COMPLETED                     |
 |                                                                           |
 |---------------------------------------------------------------------------|
 |                                                                           |
 | Ansys Release 19.2          Build 19.2         UP20180808     WINDOWS x64 |
 |                                                                           |
 |---------------------------------------------------------------------------|
 |                                                                           |
 | Database Requested(-db)  1024 MB    Scratch Memory Requested      1024 MB |
 | Maximum Database Used       8 MB    Maximum Scratch Memory Used    138 MB |
 |                                                                           |
 |---------------------------------------------------------------------------|
 |                                                                           |
 |        CP Time      (sec) =       1214.109       Time  =  22:21:22        |
 |        Elapsed Time (sec) =       1717.000       Date  =  01/29/2019      |
 |                                                                           |
 *---------------------------------------------------------------------------*
