
 ANSYS Academic Teaching Introductory              


 *------------------------------------------------------------------*
 |                                                                  |
 |   W E L C O M E   T O   T H E   A N S Y S (R)  P R O G R A M     |
 |                                                                  |
 *------------------------------------------------------------------*




 ***************************************************************
 *            ANSYS Release 19.2     LEGAL NOTICES             *
 ***************************************************************
 *                                                             *
 * Copyright 1971-2018 ANSYS, Inc.  All rights reserved.       *
 * Unauthorized use, distribution or duplication is            *
 * prohibited.                                                 *
 *                                                             *
 * Ansys is a registered trademark of ANSYS, Inc. or its       *
 * subsidiaries in the United States or other countries.       *
 * See the ANSYS, Inc. online documentation or the ANSYS, Inc. *
 * documentation CD or online help for the complete Legal      *
 * Notice.                                                     *
 *                                                             *
 ***************************************************************
 *                                                             *
 * THIS ANSYS SOFTWARE PRODUCT AND PROGRAM DOCUMENTATION       *
 * INCLUDE TRADE SECRETS AND CONFIDENTIAL AND PROPRIETARY      *
 * PRODUCTS OF ANSYS, INC., ITS SUBSIDIARIES, OR LICENSORS.    *
 * The software products and documentation are furnished by    *
 * ANSYS, Inc. or its subsidiaries under a software license    *
 * agreement that contains provisions concerning               *
 * non-disclosure, copying, length and nature of use,          *
 * compliance with exporting laws, warranties, disclaimers,    *
 * limitations of liability, and remedies, and other           *
 * provisions.  The software products and documentation may be *
 * used, disclosed, transferred, or copied only in accordance  *
 * with the terms and conditions of that software license      *
 * agreement.                                                  *
 *                                                             *
 * ANSYS, Inc. is a UL registered                              *
 * ISO 9001:2008 company.                                      *
 *                                                             *
 ***************************************************************
 *                                                             *
 * This product is subject to U.S. laws governing export and   *
 * re-export.                                                  *
 *                                                             *
 * For U.S. Government users, except as specifically granted   *
 * by the ANSYS, Inc. software license agreement, the use,     *
 * duplication, or disclosure by the United States Government  *
 * is subject to restrictions stated in the ANSYS, Inc.        *
 * software license agreement and FAR 12.212 (for non-DOD      *
 * licenses).                                                  *
 *                                                             *
 ***************************************************************

 Release 19.2
     
 Point Releases and Patches installed:   
     
 Academic Student Release 19.2   
 FENSAP-ICE Release 19.2 


          *****  ANSYS COMMAND LINE ARGUMENTS  *****
  BATCH MODE REQUESTED (-b)    = NOLIST
  INPUT FILE COPY MODE (-c)    = COPY
  DISTRIBUTED MEMORY PARALLEL REQUESTED
       2 PARALLEL PROCESSES REQUESTED WITH SINGLE THREAD PER PROCESS
    TOTAL OF     2 CORES REQUESTED
  DESIGNXPLORER REQUESTED
  MPI OPTION                   = INTELMPI
  INPUT FILE NAME              = C:\Users\Satan\AppData\Local\Temp\WB_SATAN-PC_Satan_12000_2\_ProjectScratch\Scr271F\dummy.dat
  OUTPUT FILE NAME             = C:\Users\Satan\AppData\Local\Temp\WB_SATAN-PC_Satan_12000_2\_ProjectScratch\Scr271F\solve.out
  START-UP FILE MODE           = NOREAD
  STOP FILE MODE               = NOREAD

 RELEASE= Release 19.2         BUILD= 19.2      UP20180808   VERSION=WINDOWS x64 
 CURRENT JOBNAME=file0  11:46:25  JAN 29, 2019 CP=      0.374


 PARAMETER _DS_PROGRESS =     999.0000000    

 /INPUT FILE= ds.dat  LINE=       0



 *** NOTE ***                            CP =       0.655   TIME= 11:46:25
 The /CONFIG,NOELDB command is not valid in a Distributed ANSYS          
 solution.  Command is ignored.                                          

 *GET  _WALLSTRT  FROM  ACTI  ITEM=TIME WALL  VALUE=  11.7736111    

 TITLE= 
 unsaved_project--Transient Thermal (B5)                                       


 SET PARAMETER DIMENSIONS ON  _WB_PROJECTSCRATCH_DIR
  TYPE=STRI  DIMENSIONS=      248        1        1

 PARAMETER _WB_PROJECTSCRATCH_DIR(1) = C:\Users\Satan\AppData\Local\Temp\WB_SATAN-PC_Satan_12000_2\_ProjectScratch\Scr271F\

 SET PARAMETER DIMENSIONS ON  _WB_SOLVERFILES_DIR
  TYPE=STRI  DIMENSIONS=      248        1        1

 PARAMETER _WB_SOLVERFILES_DIR(1) = C:\Users\Satan\AppData\Local\Temp\WB_SATAN-PC_Satan_12000_2\unsaved_project_files\dp0\SYS\MECH\

 SET PARAMETER DIMENSIONS ON  _WB_USERFILES_DIR
  TYPE=STRI  DIMENSIONS=      248        1        1

 PARAMETER _WB_USERFILES_DIR(1) = C:\Users\Satan\AppData\Local\Temp\WB_SATAN-PC_Satan_12000_2\unsaved_project_files\user_files\
 --- Data in consistent CGS units. See Solving Units in the help system for more

 CGS UNITS SPECIFIED FOR INTERNAL    
  LENGTH      = CENTIMETERS (CM)
  MASS        = GRAMS (G)
  TIME        = SECONDS (SEC)
  TEMPERATURE = CELSIUS (C)
  TOFFSET     = 273.0
  FORCE       = DYNES
  HEAT        = ERG
  ENERGY      = ERG

 INPUT  UNITS ARE ALSO SET TO CGS 

 *** ANSYS - ENGINEERING ANALYSIS SYSTEM  RELEASE Release 19.2     19.2     ***
 DISTRIBUTED ANSYS Academic Teaching Introductory              

 01055371  VERSION=WINDOWS x64   11:46:25  JAN 29, 2019 CP=      0.655

 unsaved_project--Transient Thermal (B5)                                       



          ***** ANSYS ANALYSIS DEFINITION (PREP7) *****
 *********** Nodes for the whole assembly ***********
 *********** Elements for Body 1 "single plane side of cubesat-FreeParts" ******
 *********** Send User Defined Coordinate System(s) ***********
 *********** Send Materials ***********
 *********** Create "Heat Flux" ***********
 *********** Create "Heat Flux 2" ***********
 *********** Create "ToAmbient" Radiation ***********
 ***************** Define Uniform Initial temperature ***************


 ***** ROUTINE COMPLETED *****  CP =         1.061


 --- Number of total nodes = 25872
 --- Number of contact elements = 6834
 --- Number of spring elements = 0
 --- Number of bearing elements = 0
 --- Number of solid elements = 4556
 --- Number of condensed parts = 0
 --- Number of total elements = 11390

 *GET  _WALLBSOL  FROM  ACTI  ITEM=TIME WALL  VALUE=  11.7736111    
 ****************************************************************************
 *************************    SOLUTION       ********************************
 ****************************************************************************

 *****  ANSYS SOLUTION ROUTINE  *****


 PERFORM A TRANSIENT ANALYSIS
  THIS WILL BE A NEW ANALYSIS

 STEP BOUNDARY CONDITION KEY= 1

 CONTACT INFORMATION PRINTOUT LEVEL       1

 DO NOT SAVE ANY RESTART FILES AT ALL

 DO NOT COMBINE ELEMENT MATRIX FILES (.emat) AFTER DISTRIBUTED PARALLEL SOLUTION

 DO NOT COMBINE ELEMENT SAVE DATA FILES (.esav) AFTER DISTRIBUTED PARALLEL SOLUTION

 Use Full Nonlinear Thermal Transient Solution

 NLHIST: ADDED NODAL RESULTS HISTORY FOR:
       NAME = MAX_TEMP                        
  ITEM/COMP = TEMPMAX 
       NODE =         0

 NLHIST: ADDED NODAL RESULTS HISTORY FOR:
       NAME = MIN_TEMP                        
  ITEM/COMP = TEMPMIN 
       NODE =         0
 ********* Initial Time Increment Check And Fourier Modulus *********
  Specified Initial Time Increment: 0.5
  Estimated Increment Needed, le*le/alpha, Body 1: 0.118969
 ****************************************************
 ******************* SOLVE FOR LS 1 OF 300 ****************

 SELECT       FOR ITEM=TYPE COMPONENT=    
  IN RANGE         2 TO          2 STEP          1

       2278  ELEMENTS (OF      11390  DEFINED) SELECTED BY  ESEL  COMMAND.

 SELECT      ALL NODES HAVING ANY ELEMENT IN ELEMENT SET.

       7037 NODES (OF      25872  DEFINED) SELECTED FROM
     2278 SELECTED ELEMENTS BY NSLE COMMAND.

 GENERATE SURFACE LOAD HFLU ON SURFACE DEFINED BY ALL SELECTED NODES
 VALUE =   1400000.00    

 NUMBER OF HFLU ELEMENT FACE LOADS STORED =       2278

 SELECT       FOR ITEM=TYPE COMPONENT=    
  IN RANGE         3 TO          3 STEP          1

       2278  ELEMENTS (OF      11390  DEFINED) SELECTED BY  ESEL  COMMAND.

 SELECT      ALL NODES HAVING ANY ELEMENT IN ELEMENT SET.

       7037 NODES (OF      25872  DEFINED) SELECTED FROM
     2278 SELECTED ELEMENTS BY NSLE COMMAND.

 GENERATE SURFACE LOAD HFLU ON SURFACE DEFINED BY ALL SELECTED NODES
 VALUE =   150000.000    

 NUMBER OF HFLU ELEMENT FACE LOADS STORED =       2278

 ALL SELECT   FOR ITEM=NODE COMPONENT=    
  IN RANGE         1 TO      25872 STEP          1

      25872  NODES (OF      25872  DEFINED) SELECTED BY NSEL  COMMAND.

 ALL SELECT   FOR ITEM=ELEM COMPONENT=    
  IN RANGE         1 TO      11390 STEP          1

      11390  ELEMENTS (OF      11390  DEFINED) SELECTED BY  ESEL  COMMAND.

 SPECIFIED CONSTRAINT TEMP FOR PICKED NODES 
 REAL= -271.000000       IMAG=  0.00000000    

 USE AUTOMATIC TIME STEPPING THIS LOAD STEP

 USE INITIAL TIME STEP SIZE OF 0.5000000     FOR ALL  DEGREES OF FREEDOM
 FOR AUTOMATIC TIME STEPPING:
   USE 0.5000000     AS THE MINIMUM TIME STEP SIZE
   USE  1.000000     AS THE MAXIMUM TIME STEP SIZE

 TIME=  1.0000    

 INCLUDE TRANSIENT EFFECTS FOR  ALL DEGREES OF FREEDOM THIS LOAD STEP

 ERASE THE CURRENT DATABASE OUTPUT CONTROL TABLE.


 WRITE ALL  ITEMS TO THE DATABASE WITH A FREQUENCY OF NONE
   FOR ALL APPLICABLE ENTITIES

 WRITE NSOL ITEMS TO THE DATABASE WITH A FREQUENCY OF ALL 
   FOR ALL APPLICABLE ENTITIES

 WRITE RSOL ITEMS TO THE DATABASE WITH A FREQUENCY OF ALL 
   FOR ALL APPLICABLE ENTITIES

 WRITE FFLU ITEMS TO THE DATABASE WITH A FREQUENCY OF ALL 
   FOR ALL APPLICABLE ENTITIES

 PRINTOUT RESUMED BY /GOP

 WRITE MISC ITEMS TO THE DATABASE WITH A FREQUENCY OF ALL 
   FOR THE ENTITIES DEFINED BY COMPONENT _ELMISC 

 CONVERGENCE ON HEAT BASED ON THE NORM OF THE N-R LOAD
   WITH A TOLERANCE OF 0.1000E-02 AND A MINIMUM REFERENCE VALUE OF  10.00    
   USING THE L2 NORM (CHECK THE SRSS VALUE)

 *GET  ANSINTER_  FROM  ACTI  ITEM=INT        VALUE=  0.00000000    

 *IF  ANSINTER_                         ( =   0.00000     )  NE  
      0                                 ( =   0.00000     )  THEN    

 *ENDIF

 *** NOTE ***                            CP =       1.186   TIME= 11:46:25
 The automatic domain decomposition logic has selected the MESH domain   
 decomposition method with 2 processes per solution.                     

 *****  ANSYS SOLVE    COMMAND  *****

 *** WARNING ***                         CP =       1.186   TIME= 11:46:25
 Element shape checking is currently inactive.  Issue SHPP,ON or         
 SHPP,WARN to reactivate, if desired.                                    

 *** NOTE ***                            CP =       1.248   TIME= 11:46:25
 The model data was checked and warning messages were found.             
  Please review output or errors file (                                  
 C:\Users\Satan\AppData\Local\Temp\WB_SATAN-PC_Satan_12000_2\_ProjectScr 
 ratch\Scr271F\file0.err ) for these warning messages.                   

 *** ANSYS - ENGINEERING ANALYSIS SYSTEM  RELEASE Release 19.2     19.2     ***
 DISTRIBUTED ANSYS Academic Teaching Introductory              

 01055371  VERSION=WINDOWS x64   11:46:25  JAN 29, 2019 CP=      1.248

 unsaved_project--Transient Thermal (B5)                                       



                       S O L U T I O N   O P T I O N S

   PROBLEM DIMENSIONALITY. . . . . . . . . . . . .3-D                  
   DEGREES OF FREEDOM. . . . . . TEMP
   ANALYSIS TYPE . . . . . . . . . . . . . . . . .TRANSIENT            
      SOLUTION METHOD. . . . . . . . . . . . . . .FULL                 
   OFFSET TEMPERATURE FROM ABSOLUTE ZERO . . . . .  273.15    
   NEWTON-RAPHSON OPTION . . . . . . . . . . . . .PROGRAM CHOSEN   
   GLOBALLY ASSEMBLED MATRIX . . . . . . . . . . .SYMMETRIC  

 *** NOTE ***                            CP =       1.310   TIME= 11:46:25
 This nonlinear analysis defaults to using the full Newton-Raphson       
 solution procedure.  This can be modified using the NROPT command.      

 *** NOTE ***                            CP =       1.310   TIME= 11:46:25
 The conditions for direct assembly have been met.  No .emat or .erot    
 files will be produced.                                                 

  
  
     D I S T R I B U T E D   D O M A I N   D E C O M P O S E R
  
  ...Number of elements: 11390
  ...Number of nodes:    25872
  ...Decompose to 2 CPU domains
  ...Element load balance ratio =     1.000


                      L O A D   S T E P   O P T I O N S

   LOAD STEP NUMBER. . . . . . . . . . . . . . . .     1
   TIME AT END OF THE LOAD STEP. . . . . . . . . .  1.0000    
   AUTOMATIC TIME STEPPING . . . . . . . . . . . .    ON
      STARTING TIME STEP SIZE. . . . . . . . . . . 0.50000    
      MINIMUM TIME STEP SIZE . . . . . . . . . . . 0.50000    
      MAXIMUM TIME STEP SIZE . . . . . . . . . . .  1.0000    
   MAXIMUM NUMBER OF EQUILIBRIUM ITERATIONS. . . .    15
   STEP CHANGE BOUNDARY CONDITIONS . . . . . . . .   YES
   TRANSIENT (INERTIA) EFFECTS
      THERMAL DOFS . . . . . . . . . . . . . . . .    ON
   TRANSIENT INTEGRATION PARAMETERS
      THETA. . . . . . . . . . . . . . . . . . . .  1.0000    
      OSCILLATION LIMIT CRITERION. . . . . . . . . 0.50000    
      TOLERANCE. . . . . . . . . . . . . . . . . .  0.0000    
   TERMINATE ANALYSIS IF NOT CONVERGED . . . . . .YES (EXIT)  
   CONVERGENCE CONTROLS
      LABEL   REFERENCE    TOLERANCE  NORM     MINREF
       HEAT    0.000       0.1000E-02   2      10.00    
   PRINT OUTPUT CONTROLS . . . . . . . . . . . . .NO PRINTOUT
   DATABASE OUTPUT CONTROLS
      ITEM     FREQUENCY   COMPONENT
       ALL       NONE               
      NSOL        ALL               
      RSOL        ALL               
      FFLU        ALL               
      MISC        ALL       _ELMISC 


 SOLUTION MONITORING INFO IS WRITTEN TO FILE= file.mntr                                                                                                                                                                                                                                                           




            **** CENTER OF MASS, MASS, AND MASS MOMENTS OF INERTIA ****

  CALCULATIONS ASSUME ELEMENT MASS AT ELEMENT CENTROID

  TOTAL MASS =   271.00    

                           MOM. OF INERTIA         MOM. OF INERTIA
  CENTER OF MASS            ABOUT ORIGIN        ABOUT CENTER OF MASS

  XC =  0.91768E-16      IXX =    9052.          IXX =    9036.    
  YC = -0.23912E-13      IYY =    2278.          IYY =    2261.    
  ZC =  0.25000          IZZ =   0.1129E+05      IZZ =   0.1129E+05
                         IXY =   0.7461E-13      IXY =   0.7461E-13
                         IYZ =  -0.1279E-11      IYZ =  -0.2899E-11
                         IZX =   0.6217E-14      IZX =   0.1243E-13


  *** MASS SUMMARY BY ELEMENT TYPE ***

  TYPE      MASS
     1   271.000    

 Range of element maximum matrix coefficients in global coordinates
 Maximum = 4898099.55 at element 4552.                                   
 Minimum = 511.883447 at element 10049.                                  

   *** ELEMENT MATRIX FORMULATION TIMES
     TYPE    NUMBER   ENAME      TOTAL CP  AVE CP

        1      4556  SOLID90       0.546   0.000120
        2      2278  SURF152       0.062   0.000027
        3      2278  SURF152       0.031   0.000014
        4      2278  SURF152       0.078   0.000034
 Time at end of element matrix formulation CP = 2.05921316.              
     HT FLOW CONVERGENCE VALUE=  0.1428E+07  CRITERION=   1428.    

 DISTRIBUTED SPARSE MATRIX DIRECT SOLVER.
  Number of equations =       25871,    Maximum wavefront =     68

  Local memory allocated for solver              =     40.276 MB
  Local memory required for in-core solution     =     31.388 MB
  Local memory required for out-of-core solution =     14.081 MB

  Total memory allocated for solver              =     81.071 MB
  Total memory required for in-core solution     =     63.267 MB
  Total memory required for out-of-core solution =     28.095 MB

 *** NOTE ***                            CP =       2.449   TIME= 11:46:26
 The Distributed Sparse Matrix Solver is currently running in the        
 in-core memory mode.  This memory mode uses the most amount of memory   
 in order to avoid using the hard drive as much as possible, which most  
 often results in the fastest solution time.  This mode is recommended   
 if enough physical memory is present to accommodate all of the solver   
 data.                                                                   
 Distributed sparse solver maximum pivot= 16852802.5 at node 12410 TEMP. 
 Distributed sparse solver minimum pivot= 2590115.48 at node 7073 TEMP.  
 Distributed sparse solver minimum pivot in absolute value= 2590115.48   
 at node 7073 TEMP.                                                      
    EQUIL ITER   1 COMPLETED.  NEW TRIANG MATRIX.  MAX DOF INC=  -293.0    
     HT FLOW CONVERGENCE VALUE=  0.5323E+07  CRITERION=  0.8625E+05
    EQUIL ITER   2 COMPLETED.  NEW TRIANG MATRIX.  MAX DOF INC=  0.6530E-01
     HT FLOW CONVERGENCE VALUE=   2.307      CRITERION=  0.8631E+05 <<< CONVERGED
    >>> SOLUTION CONVERGED AFTER EQUILIBRIUM ITERATION   2

   *** ELEMENT RESULT CALCULATION TIMES
     TYPE    NUMBER   ENAME      TOTAL CP  AVE CP

        1      4556  SOLID90       0.172   0.000038
        2      2278  SURF152       0.016   0.000007
        3      2278  SURF152       0.016   0.000007
        4      2278  SURF152       0.078   0.000034

   *** NODAL LOAD CALCULATION TIMES
     TYPE    NUMBER   ENAME      TOTAL CP  AVE CP

        1      4556  SOLID90       0.016   0.000003
        2      2278  SURF152       0.000   0.000000
        3      2278  SURF152       0.047   0.000021
        4      2278  SURF152       0.016   0.000007
 *** LOAD STEP     1   SUBSTEP     1  COMPLETED.    CUM ITER =      2
 *** TIME =  0.500000         TIME INC =  0.500000    
 *** AUTO STEP TIME:  NEXT TIME INC = 0.50000      UNCHANGED

     HT FLOW CONVERGENCE VALUE=  0.4471E+07  CRITERION=  0.8631E+05
    EQUIL ITER   1 COMPLETED.  NEW TRIANG MATRIX.  MAX DOF INC=  0.4648E-01
     HT FLOW CONVERGENCE VALUE=   1.749      CRITERION=  0.8637E+05 <<< CONVERGED
    >>> SOLUTION CONVERGED AFTER EQUILIBRIUM ITERATION   1
 *** LOAD STEP     1   SUBSTEP     2  COMPLETED.    CUM ITER =      3
 *** TIME =   1.00000         TIME INC =  0.500000    
 *** RESPONSE EIGENVALUE = 0.1225E-02   OSCILLATION LIMIT = 0.6124E-03


 *** ANSYS BINARY FILE STATISTICS
  BUFFER SIZE USED= 16384
        0.812 MB WRITTEN ON ELEMENT SAVED DATA FILE: file0.esav
        5.875 MB WRITTEN ON ASSEMBLED MATRIX FILE: file0.full
        5.250 MB WRITTEN ON RESULTS FILE: file0.rth
 *************** Write FE CONNECTORS *********

 WRITE OUT CONSTRAINT EQUATIONS TO FILE= file.ce                                                                                                                                                                                                                                                             
 ****************************************************
 *************** FINISHED SOLVE FOR LS 1 *************
 ****************************************************
 ******************* SOLVE FOR LS 2 OF 300 ****************

 USE AUTOMATIC TIME STEPPING THIS LOAD STEP

 USE     100 SUBSTEPS INITIALLY THIS LOAD STEP FOR ALL  DEGREES OF FREEDOM
 FOR AUTOMATIC TIME STEPPING:
   USE   1000 SUBSTEPS AS A MAXIMUM
   USE     10 SUBSTEPS AS A MINIMUM

 TIME=  2.0000    

 INCLUDE TRANSIENT EFFECTS FOR  ALL DEGREES OF FREEDOM THIS LOAD STEP

 ERASE THE CURRENT DATABASE OUTPUT CONTROL TABLE.


 WRITE ALL  ITEMS TO THE DATABASE WITH A FREQUENCY OF NONE
   FOR ALL APPLICABLE ENTITIES

 WRITE NSOL ITEMS TO THE DATABASE WITH A FREQUENCY OF ALL 
   FOR ALL APPLICABLE ENTITIES

 WRITE RSOL ITEMS TO THE DATABASE WITH A FREQUENCY OF ALL 
   FOR ALL APPLICABLE ENTITIES

 WRITE FFLU ITEMS TO THE DATABASE WITH A FREQUENCY OF ALL 
   FOR ALL APPLICABLE ENTITIES

 WRITE MISC ITEMS TO THE DATABASE WITH A FREQUENCY OF ALL 
   FOR THE ENTITIES DEFINED BY COMPONENT _ELMISC 

 CONVERGENCE ON HEAT BASED ON THE NORM OF THE N-R LOAD
   WITH A TOLERANCE OF 0.1000E-02 AND A MINIMUM REFERENCE VALUE OF  10.00    
   USING THE L2 NORM (CHECK THE SRSS VALUE)

 *****  ANSYS SOLVE    COMMAND  *****

 *** NOTE ***                            CP =       4.586   TIME= 11:46:29
 This nonlinear analysis defaults to using the full Newton-Raphson       
 solution procedure.  This can be modified using the NROPT command.      

 *** ANSYS - ENGINEERING ANALYSIS SYSTEM  RELEASE Release 19.2     19.2     ***
 DISTRIBUTED ANSYS Academic Teaching Introductory              

 01055371  VERSION=WINDOWS x64   11:46:29  JAN 29, 2019 CP=      4.664

 unsaved_project--Transient Thermal (B5)                                       



                      L O A D   S T E P   O P T I O N S

   LOAD STEP NUMBER. . . . . . . . . . . . . . . .     2
   TIME AT END OF THE LOAD STEP. . . . . . . . . .  2.0000    
   AUTOMATIC TIME STEPPING . . . . . . . . . . . .    ON
      INITIAL NUMBER OF SUBSTEPS . . . . . . . . .   100
      MAXIMUM NUMBER OF SUBSTEPS . . . . . . . . .  1000
      MINIMUM NUMBER OF SUBSTEPS . . . . . . . . .    10
   MAXIMUM NUMBER OF EQUILIBRIUM ITERATIONS. . . .    15
   STEP CHANGE BOUNDARY CONDITIONS . . . . . . . .   YES
   TRANSIENT (INERTIA) EFFECTS
      THERMAL DOFS . . . . . . . . . . . . . . . .    ON
   TRANSIENT INTEGRATION PARAMETERS
      THETA. . . . . . . . . . . . . . . . . . . .  1.0000    
      OSCILLATION LIMIT CRITERION. . . . . . . . . 0.50000    
      TOLERANCE. . . . . . . . . . . . . . . . . .  0.0000    
   TERMINATE ANALYSIS IF NOT CONVERGED . . . . . .YES (EXIT)  
   CONVERGENCE CONTROLS
      LABEL   REFERENCE    TOLERANCE  NORM     MINREF
       HEAT    0.000       0.1000E-02   2      10.00    
   PRINT OUTPUT CONTROLS . . . . . . . . . . . . .NO PRINTOUT
   DATABASE OUTPUT CONTROLS
      ITEM     FREQUENCY   COMPONENT
       ALL       NONE               
      NSOL        ALL               
      RSOL        ALL               
      FFLU        ALL               
      MISC        ALL       _ELMISC 


 SOLUTION MONITORING INFO IS WRITTEN TO FILE= file.mntr                                                                                                                                                                                                                                                           

     HT FLOW CONVERGENCE VALUE=  0.4483E+07  CRITERION=  0.8636E+05
    EQUIL ITER   1 COMPLETED.  NEW TRIANG MATRIX.  MAX DOF INC=  0.9276E-03
     HT FLOW CONVERGENCE VALUE=  0.4007E-01  CRITERION=  0.8637E+05 <<< CONVERGED
    >>> SOLUTION CONVERGED AFTER EQUILIBRIUM ITERATION   1
 *** LOAD STEP     2   SUBSTEP     1  COMPLETED.    CUM ITER =      4
 *** TIME =   1.01000         TIME INC =  0.100000E-01
 *** RESPONSE EIGENVALUE = 0.9378E-03   OSCILLATION LIMIT = 0.9378E-05
 *** AUTO STEP TIME:  NEXT TIME INC = 0.10000E-01  UNCHANGED

     HT FLOW CONVERGENCE VALUE=  0.4483E+07  CRITERION=  0.8636E+05
    EQUIL ITER   1 COMPLETED.  NEW TRIANG MATRIX.  MAX DOF INC=  0.9262E-03
     HT FLOW CONVERGENCE VALUE=  0.4001E-01  CRITERION=  0.8637E+05 <<< CONVERGED
    >>> SOLUTION CONVERGED AFTER EQUILIBRIUM ITERATION   1
 *** LOAD STEP     2   SUBSTEP     2  COMPLETED.    CUM ITER =      5
 *** TIME =   1.02000         TIME INC =  0.100000E-01
 *** RESPONSE EIGENVALUE = 0.7661E-03   OSCILLATION LIMIT = 0.7661E-05
 *** AUTO TIME STEP:  NEXT TIME INC = 0.30000E-01  INCREASED (FACTOR = 3.0000)

     HT FLOW CONVERGENCE VALUE=  0.4483E+07  CRITERION=  0.8636E+05
    EQUIL ITER   1 COMPLETED.  NEW TRIANG MATRIX.  MAX DOF INC=  0.2773E-02
     HT FLOW CONVERGENCE VALUE=  0.1191      CRITERION=  0.8637E+05 <<< CONVERGED
    >>> SOLUTION CONVERGED AFTER EQUILIBRIUM ITERATION   1
 *** LOAD STEP     2   SUBSTEP     3  COMPLETED.    CUM ITER =      6
 *** TIME =   1.05000         TIME INC =  0.300000E-01
 *** RESPONSE EIGENVALUE = 0.5706E-03   OSCILLATION LIMIT = 0.1712E-04
 *** AUTO TIME STEP:  NEXT TIME INC = 0.90000E-01  INCREASED (FACTOR = 3.0000)

     HT FLOW CONVERGENCE VALUE=  0.4483E+07  CRITERION=  0.8636E+05
    EQUIL ITER   1 COMPLETED.  NEW TRIANG MATRIX.  MAX DOF INC=  0.8302E-02
     HT FLOW CONVERGENCE VALUE=  0.3512      CRITERION=  0.8638E+05 <<< CONVERGED
    >>> SOLUTION CONVERGED AFTER EQUILIBRIUM ITERATION   1
 *** LOAD STEP     2   SUBSTEP     4  COMPLETED.    CUM ITER =      7
 *** TIME =   1.14000         TIME INC =  0.900000E-01
 *** RESPONSE EIGENVALUE = 0.4897E-03   OSCILLATION LIMIT = 0.4407E-04
 *** AUTO TIME STEP:  NEXT TIME INC = 0.10000      INCREASED (FACTOR = 1.1111)

     HT FLOW CONVERGENCE VALUE=  0.4483E+07  CRITERION=  0.8637E+05
    EQUIL ITER   1 COMPLETED.  NEW TRIANG MATRIX.  MAX DOF INC=  0.9219E-02
     HT FLOW CONVERGENCE VALUE=  0.3889      CRITERION=  0.8639E+05 <<< CONVERGED
    >>> SOLUTION CONVERGED AFTER EQUILIBRIUM ITERATION   1
 *** LOAD STEP     2   SUBSTEP     5  COMPLETED.    CUM ITER =      8
 *** TIME =   1.24000         TIME INC =  0.100000    
 *** RESPONSE EIGENVALUE = 0.4824E-03   OSCILLATION LIMIT = 0.4824E-04
 *** AUTO STEP TIME:  NEXT TIME INC = 0.10000      UNCHANGED

     HT FLOW CONVERGENCE VALUE=  0.4482E+07  CRITERION=  0.8638E+05
    EQUIL ITER   1 COMPLETED.  NEW TRIANG MATRIX.  MAX DOF INC=  0.9217E-02
     HT FLOW CONVERGENCE VALUE=  0.3889      CRITERION=  0.8641E+05 <<< CONVERGED
    >>> SOLUTION CONVERGED AFTER EQUILIBRIUM ITERATION   1
 *** LOAD STEP     2   SUBSTEP     6  COMPLETED.    CUM ITER =      9
 *** TIME =   1.34000         TIME INC =  0.100000    
 *** RESPONSE EIGENVALUE = 0.4819E-03   OSCILLATION LIMIT = 0.4819E-04
 *** AUTO STEP TIME:  NEXT TIME INC = 0.10000      UNCHANGED

     HT FLOW CONVERGENCE VALUE=  0.4482E+07  CRITERION=  0.8640E+05
    EQUIL ITER   1 COMPLETED.  NEW TRIANG MATRIX.  MAX DOF INC=  0.9217E-02
     HT FLOW CONVERGENCE VALUE=  0.3889      CRITERION=  0.8642E+05 <<< CONVERGED
    >>> SOLUTION CONVERGED AFTER EQUILIBRIUM ITERATION   1
 *** LOAD STEP     2   SUBSTEP     7  COMPLETED.    CUM ITER =     10
 *** TIME =   1.44000         TIME INC =  0.100000    
 *** RESPONSE EIGENVALUE = 0.4819E-03   OSCILLATION LIMIT = 0.4819E-04
 *** AUTO STEP TIME:  NEXT TIME INC = 0.10000      UNCHANGED

     HT FLOW CONVERGENCE VALUE=  0.4482E+07  CRITERION=  0.8641E+05
    EQUIL ITER   1 COMPLETED.  NEW TRIANG MATRIX.  MAX DOF INC=  0.9216E-02
     HT FLOW CONVERGENCE VALUE=  0.3889      CRITERION=  0.8643E+05 <<< CONVERGED
    >>> SOLUTION CONVERGED AFTER EQUILIBRIUM ITERATION   1
 *** LOAD STEP     2   SUBSTEP     8  COMPLETED.    CUM ITER =     11
 *** TIME =   1.54000         TIME INC =  0.100000    
 *** RESPONSE EIGENVALUE = 0.4820E-03   OSCILLATION LIMIT = 0.4820E-04
 *** AUTO STEP TIME:  NEXT TIME INC = 0.10000      UNCHANGED

     HT FLOW CONVERGENCE VALUE=  0.4482E+07  CRITERION=  0.8642E+05
    EQUIL ITER   1 COMPLETED.  NEW TRIANG MATRIX.  MAX DOF INC=  0.9216E-02
     HT FLOW CONVERGENCE VALUE=  0.3889      CRITERION=  0.8644E+05 <<< CONVERGED
    >>> SOLUTION CONVERGED AFTER EQUILIBRIUM ITERATION   1
 *** LOAD STEP     2   SUBSTEP     9  COMPLETED.    CUM ITER =     12
 *** TIME =   1.64000         TIME INC =  0.100000    
 *** RESPONSE EIGENVALUE = 0.4820E-03   OSCILLATION LIMIT = 0.4820E-04
 *** AUTO STEP TIME:  NEXT TIME INC = 0.10000      UNCHANGED

     HT FLOW CONVERGENCE VALUE=  0.4482E+07  CRITERION=  0.8643E+05
    EQUIL ITER   1 COMPLETED.  NEW TRIANG MATRIX.  MAX DOF INC=  0.9216E-02
     HT FLOW CONVERGENCE VALUE=  0.3889      CRITERION=  0.8645E+05 <<< CONVERGED
    >>> SOLUTION CONVERGED AFTER EQUILIBRIUM ITERATION   1
 *** LOAD STEP     2   SUBSTEP    10  COMPLETED.    CUM ITER =     13
 *** TIME =   1.74000         TIME INC =  0.100000    
 *** RESPONSE EIGENVALUE = 0.4821E-03   OSCILLATION LIMIT = 0.4821E-04
 *** AUTO STEP TIME:  NEXT TIME INC = 0.10000      UNCHANGED

     HT FLOW CONVERGENCE VALUE=  0.4481E+07  CRITERION=  0.8644E+05
    EQUIL ITER   1 COMPLETED.  NEW TRIANG MATRIX.  MAX DOF INC=  0.9215E-02
     HT FLOW CONVERGENCE VALUE=  0.3889      CRITERION=  0.8646E+05 <<< CONVERGED
    >>> SOLUTION CONVERGED AFTER EQUILIBRIUM ITERATION   1
 *** LOAD STEP     2   SUBSTEP    11  COMPLETED.    CUM ITER =     14
 *** TIME =   1.84000         TIME INC =  0.100000    
 *** RESPONSE EIGENVALUE = 0.4821E-03   OSCILLATION LIMIT = 0.4821E-04
 *** AUTO STEP TIME:  NEXT TIME INC = 0.10000      UNCHANGED

     HT FLOW CONVERGENCE VALUE=  0.4481E+07  CRITERION=  0.8645E+05
    EQUIL ITER   1 COMPLETED.  NEW TRIANG MATRIX.  MAX DOF INC=  0.9215E-02
     HT FLOW CONVERGENCE VALUE=  0.3889      CRITERION=  0.8647E+05 <<< CONVERGED
    >>> SOLUTION CONVERGED AFTER EQUILIBRIUM ITERATION   1
 *** LOAD STEP     2   SUBSTEP    12  COMPLETED.    CUM ITER =     15
 *** TIME =   1.94000         TIME INC =  0.100000    
 *** RESPONSE EIGENVALUE = 0.4821E-03   OSCILLATION LIMIT = 0.4821E-04
 *** AUTO TIME STEP:  NEXT TIME INC = 0.60000E-01  DECREASED (FACTOR = 0.6000)

     HT FLOW CONVERGENCE VALUE=  0.4481E+07  CRITERION=  0.8646E+05
    EQUIL ITER   1 COMPLETED.  NEW TRIANG MATRIX.  MAX DOF INC=  0.5529E-02
     HT FLOW CONVERGENCE VALUE=  0.2358      CRITERION=  0.8648E+05 <<< CONVERGED
    >>> SOLUTION CONVERGED AFTER EQUILIBRIUM ITERATION   1
 *** LOAD STEP     2   SUBSTEP    13  COMPLETED.    CUM ITER =     16
 *** TIME =   2.00000         TIME INC =  0.600000E-01
 *** RESPONSE EIGENVALUE = 0.4822E-03   OSCILLATION LIMIT = 0.2893E-04
 ****************************************************
 *************** FINISHED SOLVE FOR LS 2 *************
 ****************************************************
 ******************* SOLVE FOR LS 3 OF 300 ****************

 USE AUTOMATIC TIME STEPPING THIS LOAD STEP

 USE     100 SUBSTEPS INITIALLY THIS LOAD STEP FOR ALL  DEGREES OF FREEDOM
 FOR AUTOMATIC TIME STEPPING:
   USE   1000 SUBSTEPS AS A MAXIMUM
   USE     10 SUBSTEPS AS A MINIMUM

 TIME=  3.0000    

 INCLUDE TRANSIENT EFFECTS FOR  ALL DEGREES OF FREEDOM THIS LOAD STEP

 ERASE THE CURRENT DATABASE OUTPUT CONTROL TABLE.


 WRITE ALL  ITEMS TO THE DATABASE WITH A FREQUENCY OF NONE
   FOR ALL APPLICABLE ENTITIES

 WRITE NSOL ITEMS TO THE DATABASE WITH A FREQUENCY OF ALL 
   FOR ALL APPLICABLE ENTITIES

 WRITE RSOL ITEMS TO THE DATABASE WITH A FREQUENCY OF ALL 
   FOR ALL APPLICABLE ENTITIES

 WRITE FFLU ITEMS TO THE DATABASE WITH A FREQUENCY OF ALL 
   FOR ALL APPLICABLE ENTITIES

 WRITE MISC ITEMS TO THE DATABASE WITH A FREQUENCY OF ALL 
   FOR THE ENTITIES DEFINED BY COMPONENT _ELMISC 

 CONVERGENCE ON HEAT BASED ON THE NORM OF THE N-R LOAD
   WITH A TOLERANCE OF 0.1000E-02 AND A MINIMUM REFERENCE VALUE OF  10.00    
   USING THE L2 NORM (CHECK THE SRSS VALUE)

 *****  ANSYS SOLVE    COMMAND  *****

 *** NOTE ***                            CP =      15.038   TIME= 11:46:39
 This nonlinear analysis defaults to using the full Newton-Raphson       
 solution procedure.  This can be modified using the NROPT command.      

 *** ANSYS - ENGINEERING ANALYSIS SYSTEM  RELEASE Release 19.2     19.2     ***
 DISTRIBUTED ANSYS Academic Teaching Introductory              

 01055371  VERSION=WINDOWS x64   11:46:39  JAN 29, 2019 CP=     15.101

 unsaved_project--Transient Thermal (B5)                                       



                      L O A D   S T E P   O P T I O N S

   LOAD STEP NUMBER. . . . . . . . . . . . . . . .     3
   TIME AT END OF THE LOAD STEP. . . . . . . . . .  3.0000    
   AUTOMATIC TIME STEPPING . . . . . . . . . . . .    ON
      INITIAL NUMBER OF SUBSTEPS . . . . . . . . .   100
      MAXIMUM NUMBER OF SUBSTEPS . . . . . . . . .  1000
      MINIMUM NUMBER OF SUBSTEPS . . . . . . . . .    10
   MAXIMUM NUMBER OF EQUILIBRIUM ITERATIONS. . . .    15
   STEP CHANGE BOUNDARY CONDITIONS . . . . . . . .   YES
   TRANSIENT (INERTIA) EFFECTS
      THERMAL DOFS . . . . . . . . . . . . . . . .    ON
   TRANSIENT INTEGRATION PARAMETERS
      THETA. . . . . . . . . . . . . . . . . . . .  1.0000    
      OSCILLATION LIMIT CRITERION. . . . . . . . . 0.50000    
      TOLERANCE. . . . . . . . . . . . . . . . . .  0.0000    
   TERMINATE ANALYSIS IF NOT CONVERGED . . . . . .YES (EXIT)  
   CONVERGENCE CONTROLS
      LABEL   REFERENCE    TOLERANCE  NORM     MINREF
       HEAT    0.000       0.1000E-02   2      10.00    
   PRINT OUTPUT CONTROLS . . . . . . . . . . . . .NO PRINTOUT
   DATABASE OUTPUT CONTROLS
      ITEM     FREQUENCY   COMPONENT
       ALL       NONE               
      NSOL        ALL               
      RSOL        ALL               
      FFLU        ALL               
      MISC        ALL       _ELMISC 


 SOLUTION MONITORING INFO IS WRITTEN TO FILE= file.mntr                                                                                                                                                                                                                                                           

     HT FLOW CONVERGENCE VALUE=  0.4481E+07  CRITERION=  0.8647E+05
    EQUIL ITER   1 COMPLETED.  NEW TRIANG MATRIX.  MAX DOF INC=  0.9214E-03
     HT FLOW CONVERGENCE VALUE=  0.3982E-01  CRITERION=  0.8648E+05 <<< CONVERGED
    >>> SOLUTION CONVERGED AFTER EQUILIBRIUM ITERATION   1
 *** LOAD STEP     3   SUBSTEP     1  COMPLETED.    CUM ITER =     17
 *** TIME =   2.01000         TIME INC =  0.100000E-01
 *** RESPONSE EIGENVALUE = 0.4822E-03   OSCILLATION LIMIT = 0.4822E-05
 *** AUTO STEP TIME:  NEXT TIME INC = 0.10000E-01  UNCHANGED

     HT FLOW CONVERGENCE VALUE=  0.4481E+07  CRITERION=  0.8647E+05
    EQUIL ITER   1 COMPLETED.  NEW TRIANG MATRIX.  MAX DOF INC=  0.9214E-03
     HT FLOW CONVERGENCE VALUE=  0.3983E-01  CRITERION=  0.8648E+05 <<< CONVERGED
    >>> SOLUTION CONVERGED AFTER EQUILIBRIUM ITERATION   1
 *** LOAD STEP     3   SUBSTEP     2  COMPLETED.    CUM ITER =     18
 *** TIME =   2.02000         TIME INC =  0.100000E-01
 *** RESPONSE EIGENVALUE = 0.4822E-03   OSCILLATION LIMIT = 0.4822E-05
 *** AUTO TIME STEP:  NEXT TIME INC = 0.30000E-01  INCREASED (FACTOR = 3.0000)

     HT FLOW CONVERGENCE VALUE=  0.4481E+07  CRITERION=  0.8647E+05
    EQUIL ITER   1 COMPLETED.  NEW TRIANG MATRIX.  MAX DOF INC=  0.2764E-02
     HT FLOW CONVERGENCE VALUE=  0.1189      CRITERION=  0.8648E+05 <<< CONVERGED
    >>> SOLUTION CONVERGED AFTER EQUILIBRIUM ITERATION   1
 *** LOAD STEP     3   SUBSTEP     3  COMPLETED.    CUM ITER =     19
 *** TIME =   2.05000         TIME INC =  0.300000E-01
 *** RESPONSE EIGENVALUE = 0.4822E-03   OSCILLATION LIMIT = 0.1447E-04
 *** AUTO TIME STEP:  NEXT TIME INC = 0.90000E-01  INCREASED (FACTOR = 3.0000)

     HT FLOW CONVERGENCE VALUE=  0.4481E+07  CRITERION=  0.8647E+05
    EQUIL ITER   1 COMPLETED.  NEW TRIANG MATRIX.  MAX DOF INC=  0.8292E-02
     HT FLOW CONVERGENCE VALUE=  0.3509      CRITERION=  0.8649E+05 <<< CONVERGED
    >>> SOLUTION CONVERGED AFTER EQUILIBRIUM ITERATION   1
 *** LOAD STEP     3   SUBSTEP     4  COMPLETED.    CUM ITER =     20
 *** TIME =   2.14000         TIME INC =  0.900000E-01
 *** RESPONSE EIGENVALUE = 0.4822E-03   OSCILLATION LIMIT = 0.4340E-04
 *** AUTO TIME STEP:  NEXT TIME INC = 0.10000      INCREASED (FACTOR = 1.1111)

     HT FLOW CONVERGENCE VALUE=  0.4480E+07  CRITERION=  0.8648E+05
    EQUIL ITER   1 COMPLETED.  NEW TRIANG MATRIX.  MAX DOF INC=  0.9213E-02
     HT FLOW CONVERGENCE VALUE=  0.3889      CRITERION=  0.8650E+05 <<< CONVERGED
    >>> SOLUTION CONVERGED AFTER EQUILIBRIUM ITERATION   1
 *** LOAD STEP     3   SUBSTEP     5  COMPLETED.    CUM ITER =     21
 *** TIME =   2.24000         TIME INC =  0.100000    
 *** RESPONSE EIGENVALUE = 0.4823E-03   OSCILLATION LIMIT = 0.4823E-04
 *** AUTO STEP TIME:  NEXT TIME INC = 0.10000      UNCHANGED

     HT FLOW CONVERGENCE VALUE=  0.4480E+07  CRITERION=  0.8649E+05
    EQUIL ITER   1 COMPLETED.  NEW TRIANG MATRIX.  MAX DOF INC=  0.9213E-02
     HT FLOW CONVERGENCE VALUE=  0.3889      CRITERION=  0.8651E+05 <<< CONVERGED
    >>> SOLUTION CONVERGED AFTER EQUILIBRIUM ITERATION   1
 *** LOAD STEP     3   SUBSTEP     6  COMPLETED.    CUM ITER =     22
 *** TIME =   2.34000         TIME INC =  0.100000    
 *** RESPONSE EIGENVALUE = 0.4823E-03   OSCILLATION LIMIT = 0.4823E-04
 *** AUTO STEP TIME:  NEXT TIME INC = 0.10000      UNCHANGED

     HT FLOW CONVERGENCE VALUE=  0.4480E+07  CRITERION=  0.8650E+05
    EQUIL ITER   1 COMPLETED.  NEW TRIANG MATRIX.  MAX DOF INC=  0.9212E-02
     HT FLOW CONVERGENCE VALUE=  0.3889      CRITERION=  0.8652E+05 <<< CONVERGED
    >>> SOLUTION CONVERGED AFTER EQUILIBRIUM ITERATION   1
 *** LOAD STEP     3   SUBSTEP     7  COMPLETED.    CUM ITER =     23
 *** TIME =   2.44000         TIME INC =  0.100000    
 *** RESPONSE EIGENVALUE = 0.4824E-03   OSCILLATION LIMIT = 0.4824E-04
 *** AUTO STEP TIME:  NEXT TIME INC = 0.10000      UNCHANGED

     HT FLOW CONVERGENCE VALUE=  0.4480E+07  CRITERION=  0.8651E+05
    EQUIL ITER   1 COMPLETED.  NEW TRIANG MATRIX.  MAX DOF INC=  0.9212E-02
     HT FLOW CONVERGENCE VALUE=  0.3889      CRITERION=  0.8653E+05 <<< CONVERGED
    >>> SOLUTION CONVERGED AFTER EQUILIBRIUM ITERATION   1
 *** LOAD STEP     3   SUBSTEP     8  COMPLETED.    CUM ITER =     24
 *** TIME =   2.54000         TIME INC =  0.100000    
 *** RESPONSE EIGENVALUE = 0.4824E-03   OSCILLATION LIMIT = 0.4824E-04
 *** AUTO STEP TIME:  NEXT TIME INC = 0.10000      UNCHANGED

     HT FLOW CONVERGENCE VALUE=  0.4480E+07  CRITERION=  0.8652E+05
    EQUIL ITER   1 COMPLETED.  NEW TRIANG MATRIX.  MAX DOF INC=  0.9212E-02
     HT FLOW CONVERGENCE VALUE=  0.3889      CRITERION=  0.8655E+05 <<< CONVERGED
    >>> SOLUTION CONVERGED AFTER EQUILIBRIUM ITERATION   1
 *** LOAD STEP     3   SUBSTEP     9  COMPLETED.    CUM ITER =     25
 *** TIME =   2.64000         TIME INC =  0.100000    
 *** RESPONSE EIGENVALUE = 0.4825E-03   OSCILLATION LIMIT = 0.4825E-04
 *** AUTO STEP TIME:  NEXT TIME INC = 0.10000      UNCHANGED

     HT FLOW CONVERGENCE VALUE=  0.4479E+07  CRITERION=  0.8654E+05
    EQUIL ITER   1 COMPLETED.  NEW TRIANG MATRIX.  MAX DOF INC=  0.9211E-02
     HT FLOW CONVERGENCE VALUE=  0.3889      CRITERION=  0.8656E+05 <<< CONVERGED
    >>> SOLUTION CONVERGED AFTER EQUILIBRIUM ITERATION   1
 *** LOAD STEP     3   SUBSTEP    10  COMPLETED.    CUM ITER =     26
 *** TIME =   2.74000         TIME INC =  0.100000    
 *** RESPONSE EIGENVALUE = 0.4825E-03   OSCILLATION LIMIT = 0.4825E-04
 *** AUTO STEP TIME:  NEXT TIME INC = 0.10000      UNCHANGED

     HT FLOW CONVERGENCE VALUE=  0.4479E+07  CRITERION=  0.8655E+05
    EQUIL ITER   1 COMPLETED.  NEW TRIANG MATRIX.  MAX DOF INC=  0.9211E-02
     HT FLOW CONVERGENCE VALUE=  0.3889      CRITERION=  0.8657E+05 <<< CONVERGED
    >>> SOLUTION CONVERGED AFTER EQUILIBRIUM ITERATION   1
 *** LOAD STEP     3   SUBSTEP    11  COMPLETED.    CUM ITER =     27
 *** TIME =   2.84000         TIME INC =  0.100000    
 *** RESPONSE EIGENVALUE = 0.4826E-03   OSCILLATION LIMIT = 0.4826E-04
 *** AUTO STEP TIME:  NEXT TIME INC = 0.10000      UNCHANGED

     HT FLOW CONVERGENCE VALUE=  0.4479E+07  CRITERION=  0.8656E+05
    EQUIL ITER   1 COMPLETED.  NEW TRIANG MATRIX.  MAX DOF INC=  0.9210E-02
     HT FLOW CONVERGENCE VALUE=  0.3890      CRITERION=  0.8658E+05 <<< CONVERGED
    >>> SOLUTION CONVERGED AFTER EQUILIBRIUM ITERATION   1
 *** LOAD STEP     3   SUBSTEP    12  COMPLETED.    CUM ITER =     28
 *** TIME =   2.94000         TIME INC =  0.100000    
 *** RESPONSE EIGENVALUE = 0.4826E-03   OSCILLATION LIMIT = 0.4826E-04
 *** AUTO TIME STEP:  NEXT TIME INC = 0.60000E-01  DECREASED (FACTOR = 0.6000)

     HT FLOW CONVERGENCE VALUE=  0.4479E+07  CRITERION=  0.8657E+05
    EQUIL ITER   1 COMPLETED.  NEW TRIANG MATRIX.  MAX DOF INC=  0.5526E-02
     HT FLOW CONVERGENCE VALUE=  0.2359      CRITERION=  0.8658E+05 <<< CONVERGED
    >>> SOLUTION CONVERGED AFTER EQUILIBRIUM ITERATION   1
 *** LOAD STEP     3   SUBSTEP    13  COMPLETED.    CUM ITER =     29
 *** TIME =   3.00000         TIME INC =  0.600000E-01
 *** RESPONSE EIGENVALUE = 0.4826E-03   OSCILLATION LIMIT = 0.2896E-04
 ****************************************************
 *************** FINISHED SOLVE FOR LS 3 *************
 ****************************************************
 ******************* SOLVE FOR LS 4 OF 300 ****************

 USE AUTOMATIC TIME STEPPING THIS LOAD STEP

 USE     100 SUBSTEPS INITIALLY THIS LOAD STEP FOR ALL  DEGREES OF FREEDOM
 FOR AUTOMATIC TIME STEPPING:
   USE   1000 SUBSTEPS AS A MAXIMUM
   USE     10 SUBSTEPS AS A MINIMUM

 TIME=  4.0000    

 INCLUDE TRANSIENT EFFECTS FOR  ALL DEGREES OF FREEDOM THIS LOAD STEP

 ERASE THE CURRENT DATABASE OUTPUT CONTROL TABLE.


 WRITE ALL  ITEMS TO THE DATABASE WITH A FREQUENCY OF NONE
   FOR ALL APPLICABLE ENTITIES

 WRITE NSOL ITEMS TO THE DATABASE WITH A FREQUENCY OF ALL 
   FOR ALL APPLICABLE ENTITIES

 WRITE RSOL ITEMS TO THE DATABASE WITH A FREQUENCY OF ALL 
   FOR ALL APPLICABLE ENTITIES

 WRITE FFLU ITEMS TO THE DATABASE WITH A FREQUENCY OF ALL 
   FOR ALL APPLICABLE ENTITIES

 WRITE MISC ITEMS TO THE DATABASE WITH A FREQUENCY OF ALL 
   FOR THE ENTITIES DEFINED BY COMPONENT _ELMISC 

 CONVERGENCE ON HEAT BASED ON THE NORM OF THE N-R LOAD
   WITH A TOLERANCE OF 0.1000E-02 AND A MINIMUM REFERENCE VALUE OF  10.00    
   USING THE L2 NORM (CHECK THE SRSS VALUE)

 *****  ANSYS SOLVE    COMMAND  *****

 *** NOTE ***                            CP =      25.319   TIME= 11:46:49
 This nonlinear analysis defaults to using the full Newton-Raphson       
 solution procedure.  This can be modified using the NROPT command.      

 *** ANSYS - ENGINEERING ANALYSIS SYSTEM  RELEASE Release 19.2     19.2     ***
 DISTRIBUTED ANSYS Academic Teaching Introductory              

 01055371  VERSION=WINDOWS x64   11:46:50  JAN 29, 2019 CP=     25.397

 unsaved_project--Transient Thermal (B5)                                       



                      L O A D   S T E P   O P T I O N S

   LOAD STEP NUMBER. . . . . . . . . . . . . . . .     4
   TIME AT END OF THE LOAD STEP. . . . . . . . . .  4.0000    
   AUTOMATIC TIME STEPPING . . . . . . . . . . . .    ON
      INITIAL NUMBER OF SUBSTEPS . . . . . . . . .   100
      MAXIMUM NUMBER OF SUBSTEPS . . . . . . . . .  1000
      MINIMUM NUMBER OF SUBSTEPS . . . . . . . . .    10
   MAXIMUM NUMBER OF EQUILIBRIUM ITERATIONS. . . .    15
   STEP CHANGE BOUNDARY CONDITIONS . . . . . . . .   YES
   TRANSIENT (INERTIA) EFFECTS
      THERMAL DOFS . . . . . . . . . . . . . . . .    ON
   TRANSIENT INTEGRATION PARAMETERS
      THETA. . . . . . . . . . . . . . . . . . . .  1.0000    
      OSCILLATION LIMIT CRITERION. . . . . . . . . 0.50000    
      TOLERANCE. . . . . . . . . . . . . . . . . .  0.0000    
   TERMINATE ANALYSIS IF NOT CONVERGED . . . . . .YES (EXIT)  
   CONVERGENCE CONTROLS
      LABEL   REFERENCE    TOLERANCE  NORM     MINREF
       HEAT    0.000       0.1000E-02   2      10.00    
   PRINT OUTPUT CONTROLS . . . . . . . . . . . . .NO PRINTOUT
   DATABASE OUTPUT CONTROLS
      ITEM     FREQUENCY   COMPONENT
       ALL       NONE               
      NSOL        ALL               
      RSOL        ALL               
      FFLU        ALL               
      MISC        ALL       _ELMISC 


 SOLUTION MONITORING INFO IS WRITTEN TO FILE= file.mntr                                                                                                                                                                                                                                                           

     HT FLOW CONVERGENCE VALUE=  0.4479E+07  CRITERION=  0.8657E+05
    EQUIL ITER   1 COMPLETED.  NEW TRIANG MATRIX.  MAX DOF INC=  0.9210E-03
     HT FLOW CONVERGENCE VALUE=  0.3983E-01  CRITERION=  0.8658E+05 <<< CONVERGED
    >>> SOLUTION CONVERGED AFTER EQUILIBRIUM ITERATION   1
 *** LOAD STEP     4   SUBSTEP     1  COMPLETED.    CUM ITER =     30
 *** TIME =   3.01000         TIME INC =  0.100000E-01
 *** RESPONSE EIGENVALUE = 0.4826E-03   OSCILLATION LIMIT = 0.4826E-05
 *** AUTO STEP TIME:  NEXT TIME INC = 0.10000E-01  UNCHANGED

     HT FLOW CONVERGENCE VALUE=  0.4479E+07  CRITERION=  0.8658E+05
    EQUIL ITER   1 COMPLETED.  NEW TRIANG MATRIX.  MAX DOF INC=  0.9210E-03
     HT FLOW CONVERGENCE VALUE=  0.3983E-01  CRITERION=  0.8659E+05 <<< CONVERGED
    >>> SOLUTION CONVERGED AFTER EQUILIBRIUM ITERATION   1
 *** LOAD STEP     4   SUBSTEP     2  COMPLETED.    CUM ITER =     31
 *** TIME =   3.02000         TIME INC =  0.100000E-01
 *** RESPONSE EIGENVALUE = 0.4826E-03   OSCILLATION LIMIT = 0.4826E-05
 *** AUTO TIME STEP:  NEXT TIME INC = 0.30000E-01  INCREASED (FACTOR = 3.0000)

     HT FLOW CONVERGENCE VALUE=  0.4479E+07  CRITERION=  0.8658E+05
    EQUIL ITER   1 COMPLETED.  NEW TRIANG MATRIX.  MAX DOF INC=  0.2763E-02
     HT FLOW CONVERGENCE VALUE=  0.1189      CRITERION=  0.8659E+05 <<< CONVERGED
    >>> SOLUTION CONVERGED AFTER EQUILIBRIUM ITERATION   1
 *** LOAD STEP     4   SUBSTEP     3  COMPLETED.    CUM ITER =     32
 *** TIME =   3.05000         TIME INC =  0.300000E-01
 *** RESPONSE EIGENVALUE = 0.4826E-03   OSCILLATION LIMIT = 0.1448E-04
 *** AUTO TIME STEP:  NEXT TIME INC = 0.90000E-01  INCREASED (FACTOR = 3.0000)

     HT FLOW CONVERGENCE VALUE=  0.4478E+07  CRITERION=  0.8658E+05
    EQUIL ITER   1 COMPLETED.  NEW TRIANG MATRIX.  MAX DOF INC=  0.8288E-02
     HT FLOW CONVERGENCE VALUE=  0.3510      CRITERION=  0.8660E+05 <<< CONVERGED
    >>> SOLUTION CONVERGED AFTER EQUILIBRIUM ITERATION   1
 *** LOAD STEP     4   SUBSTEP     4  COMPLETED.    CUM ITER =     33
 *** TIME =   3.14000         TIME INC =  0.900000E-01
 *** RESPONSE EIGENVALUE = 0.4827E-03   OSCILLATION LIMIT = 0.4344E-04
 *** AUTO TIME STEP:  NEXT TIME INC = 0.10000      INCREASED (FACTOR = 1.1111)

     HT FLOW CONVERGENCE VALUE=  0.4478E+07  CRITERION=  0.8659E+05
    EQUIL ITER   1 COMPLETED.  NEW TRIANG MATRIX.  MAX DOF INC=  0.9209E-02
     HT FLOW CONVERGENCE VALUE=  0.3890      CRITERION=  0.8661E+05 <<< CONVERGED
    >>> SOLUTION CONVERGED AFTER EQUILIBRIUM ITERATION   1
 *** LOAD STEP     4   SUBSTEP     5  COMPLETED.    CUM ITER =     34
 *** TIME =   3.24000         TIME INC =  0.100000    
 *** RESPONSE EIGENVALUE = 0.4827E-03   OSCILLATION LIMIT = 0.4827E-04
 *** AUTO STEP TIME:  NEXT TIME INC = 0.10000      UNCHANGED

     HT FLOW CONVERGENCE VALUE=  0.4478E+07  CRITERION=  0.8660E+05
    EQUIL ITER   1 COMPLETED.  NEW TRIANG MATRIX.  MAX DOF INC=  0.9208E-02
     HT FLOW CONVERGENCE VALUE=  0.3890      CRITERION=  0.8662E+05 <<< CONVERGED
    >>> SOLUTION CONVERGED AFTER EQUILIBRIUM ITERATION   1
 *** LOAD STEP     4   SUBSTEP     6  COMPLETED.    CUM ITER =     35
 *** TIME =   3.34000         TIME INC =  0.100000    
 *** RESPONSE EIGENVALUE = 0.4828E-03   OSCILLATION LIMIT = 0.4828E-04
 *** AUTO STEP TIME:  NEXT TIME INC = 0.10000      UNCHANGED

     HT FLOW CONVERGENCE VALUE=  0.4478E+07  CRITERION=  0.8661E+05
    EQUIL ITER   1 COMPLETED.  NEW TRIANG MATRIX.  MAX DOF INC=  0.9208E-02
     HT FLOW CONVERGENCE VALUE=  0.3890      CRITERION=  0.8663E+05 <<< CONVERGED
    >>> SOLUTION CONVERGED AFTER EQUILIBRIUM ITERATION   1
 *** LOAD STEP     4   SUBSTEP     7  COMPLETED.    CUM ITER =     36
 *** TIME =   3.44000         TIME INC =  0.100000    
 *** RESPONSE EIGENVALUE = 0.4828E-03   OSCILLATION LIMIT = 0.4828E-04
 *** AUTO STEP TIME:  NEXT TIME INC = 0.10000      UNCHANGED

     HT FLOW CONVERGENCE VALUE=  0.4478E+07  CRITERION=  0.8662E+05
    EQUIL ITER   1 COMPLETED.  NEW TRIANG MATRIX.  MAX DOF INC=  0.9208E-02
     HT FLOW CONVERGENCE VALUE=  0.3890      CRITERION=  0.8664E+05 <<< CONVERGED
    >>> SOLUTION CONVERGED AFTER EQUILIBRIUM ITERATION   1
 *** LOAD STEP     4   SUBSTEP     8  COMPLETED.    CUM ITER =     37
 *** TIME =   3.54000         TIME INC =  0.100000    
 *** RESPONSE EIGENVALUE = 0.4829E-03   OSCILLATION LIMIT = 0.4829E-04
 *** AUTO STEP TIME:  NEXT TIME INC = 0.10000      UNCHANGED

     HT FLOW CONVERGENCE VALUE=  0.4477E+07  CRITERION=  0.8663E+05
    EQUIL ITER   1 COMPLETED.  NEW TRIANG MATRIX.  MAX DOF INC=  0.9207E-02
     HT FLOW CONVERGENCE VALUE=  0.3890      CRITERION=  0.8665E+05 <<< CONVERGED
    >>> SOLUTION CONVERGED AFTER EQUILIBRIUM ITERATION   1
 *** LOAD STEP     4   SUBSTEP     9  COMPLETED.    CUM ITER =     38
 *** TIME =   3.64000         TIME INC =  0.100000    
 *** RESPONSE EIGENVALUE = 0.4829E-03   OSCILLATION LIMIT = 0.4829E-04
 *** AUTO STEP TIME:  NEXT TIME INC = 0.10000      UNCHANGED

     HT FLOW CONVERGENCE VALUE=  0.4477E+07  CRITERION=  0.8664E+05
    EQUIL ITER   1 COMPLETED.  NEW TRIANG MATRIX.  MAX DOF INC=  0.9207E-02
     HT FLOW CONVERGENCE VALUE=  0.3890      CRITERION=  0.8666E+05 <<< CONVERGED
    >>> SOLUTION CONVERGED AFTER EQUILIBRIUM ITERATION   1
 *** LOAD STEP     4   SUBSTEP    10  COMPLETED.    CUM ITER =     39
 *** TIME =   3.74000         TIME INC =  0.100000    
 *** RESPONSE EIGENVALUE = 0.4830E-03   OSCILLATION LIMIT = 0.4830E-04
 *** AUTO STEP TIME:  NEXT TIME INC = 0.10000      UNCHANGED

     HT FLOW CONVERGENCE VALUE=  0.4477E+07  CRITERION=  0.8665E+05
    EQUIL ITER   1 COMPLETED.  NEW TRIANG MATRIX.  MAX DOF INC=  0.9206E-02
     HT FLOW CONVERGENCE VALUE=  0.3890      CRITERION=  0.8667E+05 <<< CONVERGED
    >>> SOLUTION CONVERGED AFTER EQUILIBRIUM ITERATION   1
 *** LOAD STEP     4   SUBSTEP    11  COMPLETED.    CUM ITER =     40
 *** TIME =   3.84000         TIME INC =  0.100000    
 *** RESPONSE EIGENVALUE = 0.4830E-03   OSCILLATION LIMIT = 0.4830E-04
 *** AUTO STEP TIME:  NEXT TIME INC = 0.10000      UNCHANGED

     HT FLOW CONVERGENCE VALUE=  0.4477E+07  CRITERION=  0.8666E+05
    EQUIL ITER   1 COMPLETED.  NEW TRIANG MATRIX.  MAX DOF INC=  0.9206E-02
     HT FLOW CONVERGENCE VALUE=  0.3890      CRITERION=  0.8668E+05 <<< CONVERGED
    >>> SOLUTION CONVERGED AFTER EQUILIBRIUM ITERATION   1
 *** LOAD STEP     4   SUBSTEP    12  COMPLETED.    CUM ITER =     41
 *** TIME =   3.94000         TIME INC =  0.100000    
 *** RESPONSE EIGENVALUE = 0.4830E-03   OSCILLATION LIMIT = 0.4830E-04
 *** AUTO TIME STEP:  NEXT TIME INC = 0.60000E-01  DECREASED (FACTOR = 0.6000)

     HT FLOW CONVERGENCE VALUE=  0.4477E+07  CRITERION=  0.8667E+05
    EQUIL ITER   1 COMPLETED.  NEW TRIANG MATRIX.  MAX DOF INC=  0.5523E-02
     HT FLOW CONVERGENCE VALUE=  0.2359      CRITERION=  0.8669E+05 <<< CONVERGED
    >>> SOLUTION CONVERGED AFTER EQUILIBRIUM ITERATION   1
 *** LOAD STEP     4   SUBSTEP    13  COMPLETED.    CUM ITER =     42
 *** TIME =   4.00000         TIME INC =  0.600000E-01
 *** RESPONSE EIGENVALUE = 0.4831E-03   OSCILLATION LIMIT = 0.2898E-04
 ****************************************************
 *************** FINISHED SOLVE FOR LS 4 *************
 ****************************************************
 ******************* SOLVE FOR LS 5 OF 300 ****************

 USE AUTOMATIC TIME STEPPING THIS LOAD STEP

 USE     100 SUBSTEPS INITIALLY THIS LOAD STEP FOR ALL  DEGREES OF FREEDOM
 FOR AUTOMATIC TIME STEPPING:
   USE   1000 SUBSTEPS AS A MAXIMUM
   USE     10 SUBSTEPS AS A MINIMUM

 TIME=  5.0000    

 INCLUDE TRANSIENT EFFECTS FOR  ALL DEGREES OF FREEDOM THIS LOAD STEP

 ERASE THE CURRENT DATABASE OUTPUT CONTROL TABLE.


 WRITE ALL  ITEMS TO THE DATABASE WITH A FREQUENCY OF NONE
   FOR ALL APPLICABLE ENTITIES

 WRITE NSOL ITEMS TO THE DATABASE WITH A FREQUENCY OF ALL 
   FOR ALL APPLICABLE ENTITIES

 WRITE RSOL ITEMS TO THE DATABASE WITH A FREQUENCY OF ALL 
   FOR ALL APPLICABLE ENTITIES

 WRITE FFLU ITEMS TO THE DATABASE WITH A FREQUENCY OF ALL 
   FOR ALL APPLICABLE ENTITIES

 WRITE MISC ITEMS TO THE DATABASE WITH A FREQUENCY OF ALL 
   FOR THE ENTITIES DEFINED BY COMPONENT _ELMISC 

 CONVERGENCE ON HEAT BASED ON THE NORM OF THE N-R LOAD
   WITH A TOLERANCE OF 0.1000E-02 AND A MINIMUM REFERENCE VALUE OF  10.00    
   USING THE L2 NORM (CHECK THE SRSS VALUE)

 *****  ANSYS SOLVE    COMMAND  *****

 *** NOTE ***                            CP =      35.412   TIME= 11:47:00
 This nonlinear analysis defaults to using the full Newton-Raphson       
 solution procedure.  This can be modified using the NROPT command.      

 *** ANSYS - ENGINEERING ANALYSIS SYSTEM  RELEASE Release 19.2     19.2     ***
 DISTRIBUTED ANSYS Academic Teaching Introductory              

 01055371  VERSION=WINDOWS x64   11:47:00  JAN 29, 2019 CP=     35.475

 unsaved_project--Transient Thermal (B5)                                       



                      L O A D   S T E P   O P T I O N S

   LOAD STEP NUMBER. . . . . . . . . . . . . . . .     5
   TIME AT END OF THE LOAD STEP. . . . . . . . . .  5.0000    
   AUTOMATIC TIME STEPPING . . . . . . . . . . . .    ON
      INITIAL NUMBER OF SUBSTEPS . . . . . . . . .   100
      MAXIMUM NUMBER OF SUBSTEPS . . . . . . . . .  1000
      MINIMUM NUMBER OF SUBSTEPS . . . . . . . . .    10
   MAXIMUM NUMBER OF EQUILIBRIUM ITERATIONS. . . .    15
   STEP CHANGE BOUNDARY CONDITIONS . . . . . . . .   YES
   TRANSIENT (INERTIA) EFFECTS
      THERMAL DOFS . . . . . . . . . . . . . . . .    ON
   TRANSIENT INTEGRATION PARAMETERS
      THETA. . . . . . . . . . . . . . . . . . . .  1.0000    
      OSCILLATION LIMIT CRITERION. . . . . . . . . 0.50000    
      TOLERANCE. . . . . . . . . . . . . . . . . .  0.0000    
   TERMINATE ANALYSIS IF NOT CONVERGED . . . . . .YES (EXIT)  
   CONVERGENCE CONTROLS
      LABEL   REFERENCE    TOLERANCE  NORM     MINREF
       HEAT    0.000       0.1000E-02   2      10.00    
   PRINT OUTPUT CONTROLS . . . . . . . . . . . . .NO PRINTOUT
   DATABASE OUTPUT CONTROLS
      ITEM     FREQUENCY   COMPONENT
       ALL       NONE               
      NSOL        ALL               
      RSOL        ALL               
      FFLU        ALL               
      MISC        ALL       _ELMISC 


 SOLUTION MONITORING INFO IS WRITTEN TO FILE= file.mntr                                                                                                                                                                                                                                                           

     HT FLOW CONVERGENCE VALUE=  0.4476E+07  CRITERION=  0.8668E+05
    EQUIL ITER   1 COMPLETED.  NEW TRIANG MATRIX.  MAX DOF INC=  0.9205E-03
     HT FLOW CONVERGENCE VALUE=  0.3984E-01  CRITERION=  0.8669E+05 <<< CONVERGED
    >>> SOLUTION CONVERGED AFTER EQUILIBRIUM ITERATION   1
 *** LOAD STEP     5   SUBSTEP     1  COMPLETED.    CUM ITER =     43
 *** TIME =   4.01000         TIME INC =  0.100000E-01
 *** RESPONSE EIGENVALUE = 0.4831E-03   OSCILLATION LIMIT = 0.4831E-05
 *** AUTO STEP TIME:  NEXT TIME INC = 0.10000E-01  UNCHANGED

     HT FLOW CONVERGENCE VALUE=  0.4476E+07  CRITERION=  0.8668E+05
    EQUIL ITER   1 COMPLETED.  NEW TRIANG MATRIX.  MAX DOF INC=  0.9205E-03
     HT FLOW CONVERGENCE VALUE=  0.3984E-01  CRITERION=  0.8669E+05 <<< CONVERGED
    >>> SOLUTION CONVERGED AFTER EQUILIBRIUM ITERATION   1
 *** LOAD STEP     5   SUBSTEP     2  COMPLETED.    CUM ITER =     44
 *** TIME =   4.02000         TIME INC =  0.100000E-01
 *** RESPONSE EIGENVALUE = 0.4831E-03   OSCILLATION LIMIT = 0.4831E-05
 *** AUTO TIME STEP:  NEXT TIME INC = 0.30000E-01  INCREASED (FACTOR = 3.0000)

     HT FLOW CONVERGENCE VALUE=  0.4476E+07  CRITERION=  0.8668E+05
    EQUIL ITER   1 COMPLETED.  NEW TRIANG MATRIX.  MAX DOF INC=  0.2762E-02
     HT FLOW CONVERGENCE VALUE=  0.1189      CRITERION=  0.8670E+05 <<< CONVERGED
    >>> SOLUTION CONVERGED AFTER EQUILIBRIUM ITERATION   1
 *** LOAD STEP     5   SUBSTEP     3  COMPLETED.    CUM ITER =     45
 *** TIME =   4.05000         TIME INC =  0.300000E-01
 *** RESPONSE EIGENVALUE = 0.4831E-03   OSCILLATION LIMIT = 0.1449E-04
 *** AUTO TIME STEP:  NEXT TIME INC = 0.90000E-01  INCREASED (FACTOR = 3.0000)

     HT FLOW CONVERGENCE VALUE=  0.4476E+07  CRITERION=  0.8669E+05
    EQUIL ITER   1 COMPLETED.  NEW TRIANG MATRIX.  MAX DOF INC=  0.8284E-02
     HT FLOW CONVERGENCE VALUE=  0.3511      CRITERION=  0.8671E+05 <<< CONVERGED
    >>> SOLUTION CONVERGED AFTER EQUILIBRIUM ITERATION   1
 *** LOAD STEP     5   SUBSTEP     4  COMPLETED.    CUM ITER =     46
 *** TIME =   4.14000         TIME INC =  0.900000E-01
 *** RESPONSE EIGENVALUE = 0.4831E-03   OSCILLATION LIMIT = 0.4348E-04
 *** AUTO TIME STEP:  NEXT TIME INC = 0.10000      INCREASED (FACTOR = 1.1111)

     HT FLOW CONVERGENCE VALUE=  0.4476E+07  CRITERION=  0.8670E+05
    EQUIL ITER   1 COMPLETED.  NEW TRIANG MATRIX.  MAX DOF INC=  0.9204E-02
     HT FLOW CONVERGENCE VALUE=  0.3890      CRITERION=  0.8672E+05 <<< CONVERGED
    >>> SOLUTION CONVERGED AFTER EQUILIBRIUM ITERATION   1
 *** LOAD STEP     5   SUBSTEP     5  COMPLETED.    CUM ITER =     47
 *** TIME =   4.24000         TIME INC =  0.100000    
 *** RESPONSE EIGENVALUE = 0.4832E-03   OSCILLATION LIMIT = 0.4832E-04
 *** AUTO STEP TIME:  NEXT TIME INC = 0.10000      UNCHANGED

     HT FLOW CONVERGENCE VALUE=  0.4476E+07  CRITERION=  0.8671E+05
    EQUIL ITER   1 COMPLETED.  NEW TRIANG MATRIX.  MAX DOF INC=  0.9204E-02
     HT FLOW CONVERGENCE VALUE=  0.3890      CRITERION=  0.8673E+05 <<< CONVERGED
    >>> SOLUTION CONVERGED AFTER EQUILIBRIUM ITERATION   1
 *** LOAD STEP     5   SUBSTEP     6  COMPLETED.    CUM ITER =     48
 *** TIME =   4.34000         TIME INC =  0.100000    
 *** RESPONSE EIGENVALUE = 0.4832E-03   OSCILLATION LIMIT = 0.4832E-04
 *** AUTO STEP TIME:  NEXT TIME INC = 0.10000      UNCHANGED

     HT FLOW CONVERGENCE VALUE=  0.4476E+07  CRITERION=  0.8672E+05
    EQUIL ITER   1 COMPLETED.  NEW TRIANG MATRIX.  MAX DOF INC=  0.9204E-02
     HT FLOW CONVERGENCE VALUE=  0.3890      CRITERION=  0.8674E+05 <<< CONVERGED
    >>> SOLUTION CONVERGED AFTER EQUILIBRIUM ITERATION   1
 *** LOAD STEP     5   SUBSTEP     7  COMPLETED.    CUM ITER =     49
 *** TIME =   4.44000         TIME INC =  0.100000    
 *** RESPONSE EIGENVALUE = 0.4833E-03   OSCILLATION LIMIT = 0.4833E-04
 *** AUTO STEP TIME:  NEXT TIME INC = 0.10000      UNCHANGED

     HT FLOW CONVERGENCE VALUE=  0.4475E+07  CRITERION=  0.8673E+05
    EQUIL ITER   1 COMPLETED.  NEW TRIANG MATRIX.  MAX DOF INC=  0.9203E-02
     HT FLOW CONVERGENCE VALUE=  0.3890      CRITERION=  0.8675E+05 <<< CONVERGED
    >>> SOLUTION CONVERGED AFTER EQUILIBRIUM ITERATION   1
 *** LOAD STEP     5   SUBSTEP     8  COMPLETED.    CUM ITER =     50
 *** TIME =   4.54000         TIME INC =  0.100000    
 *** RESPONSE EIGENVALUE = 0.4833E-03   OSCILLATION LIMIT = 0.4833E-04
 *** AUTO STEP TIME:  NEXT TIME INC = 0.10000      UNCHANGED

     HT FLOW CONVERGENCE VALUE=  0.4475E+07  CRITERION=  0.8674E+05
    EQUIL ITER   1 COMPLETED.  NEW TRIANG MATRIX.  MAX DOF INC=  0.9203E-02
     HT FLOW CONVERGENCE VALUE=  0.3891      CRITERION=  0.8676E+05 <<< CONVERGED
    >>> SOLUTION CONVERGED AFTER EQUILIBRIUM ITERATION   1
 *** LOAD STEP     5   SUBSTEP     9  COMPLETED.    CUM ITER =     51
 *** TIME =   4.64000         TIME INC =  0.100000    
 *** RESPONSE EIGENVALUE = 0.4834E-03   OSCILLATION LIMIT = 0.4834E-04
 *** AUTO STEP TIME:  NEXT TIME INC = 0.10000      UNCHANGED

     HT FLOW CONVERGENCE VALUE=  0.4475E+07  CRITERION=  0.8675E+05
    EQUIL ITER   1 COMPLETED.  NEW TRIANG MATRIX.  MAX DOF INC=  0.9202E-02
     HT FLOW CONVERGENCE VALUE=  0.3891      CRITERION=  0.8677E+05 <<< CONVERGED
    >>> SOLUTION CONVERGED AFTER EQUILIBRIUM ITERATION   1
 *** LOAD STEP     5   SUBSTEP    10  COMPLETED.    CUM ITER =     52
 *** TIME =   4.74000         TIME INC =  0.100000    
 *** RESPONSE EIGENVALUE = 0.4834E-03   OSCILLATION LIMIT = 0.4834E-04
 *** AUTO STEP TIME:  NEXT TIME INC = 0.10000      UNCHANGED

     HT FLOW CONVERGENCE VALUE=  0.4475E+07  CRITERION=  0.8676E+05
    EQUIL ITER   1 COMPLETED.  NEW TRIANG MATRIX.  MAX DOF INC=  0.9202E-02
     HT FLOW CONVERGENCE VALUE=  0.3891      CRITERION=  0.8678E+05 <<< CONVERGED
    >>> SOLUTION CONVERGED AFTER EQUILIBRIUM ITERATION   1
 *** LOAD STEP     5   SUBSTEP    11  COMPLETED.    CUM ITER =     53
 *** TIME =   4.84000         TIME INC =  0.100000    
 *** RESPONSE EIGENVALUE = 0.4835E-03   OSCILLATION LIMIT = 0.4835E-04
 *** AUTO STEP TIME:  NEXT TIME INC = 0.10000      UNCHANGED

     HT FLOW CONVERGENCE VALUE=  0.4475E+07  CRITERION=  0.8677E+05
    EQUIL ITER   1 COMPLETED.  NEW TRIANG MATRIX.  MAX DOF INC=  0.9201E-02
     HT FLOW CONVERGENCE VALUE=  0.3891      CRITERION=  0.8679E+05 <<< CONVERGED
    >>> SOLUTION CONVERGED AFTER EQUILIBRIUM ITERATION   1
 *** LOAD STEP     5   SUBSTEP    12  COMPLETED.    CUM ITER =     54
 *** TIME =   4.94000         TIME INC =  0.100000    
 *** RESPONSE EIGENVALUE = 0.4835E-03   OSCILLATION LIMIT = 0.4835E-04
 *** AUTO TIME STEP:  NEXT TIME INC = 0.60000E-01  DECREASED (FACTOR = 0.6000)

     HT FLOW CONVERGENCE VALUE=  0.4474E+07  CRITERION=  0.8678E+05
    EQUIL ITER   1 COMPLETED.  NEW TRIANG MATRIX.  MAX DOF INC=  0.5521E-02
     HT FLOW CONVERGENCE VALUE=  0.2359      CRITERION=  0.8680E+05 <<< CONVERGED
    >>> SOLUTION CONVERGED AFTER EQUILIBRIUM ITERATION   1
 *** LOAD STEP     5   SUBSTEP    13  COMPLETED.    CUM ITER =     55
 *** TIME =   5.00000         TIME INC =  0.600000E-01
 *** RESPONSE EIGENVALUE = 0.4835E-03   OSCILLATION LIMIT = 0.2901E-04
 ****************************************************
 *************** FINISHED SOLVE FOR LS 5 *************
 ****************************************************
 ******************* SOLVE FOR LS 6 OF 300 ****************

 USE AUTOMATIC TIME STEPPING THIS LOAD STEP

 USE     100 SUBSTEPS INITIALLY THIS LOAD STEP FOR ALL  DEGREES OF FREEDOM
 FOR AUTOMATIC TIME STEPPING:
   USE   1000 SUBSTEPS AS A MAXIMUM
   USE     10 SUBSTEPS AS A MINIMUM

 TIME=  6.0000    

 INCLUDE TRANSIENT EFFECTS FOR  ALL DEGREES OF FREEDOM THIS LOAD STEP

 ERASE THE CURRENT DATABASE OUTPUT CONTROL TABLE.


 WRITE ALL  ITEMS TO THE DATABASE WITH A FREQUENCY OF NONE
   FOR ALL APPLICABLE ENTITIES

 WRITE NSOL ITEMS TO THE DATABASE WITH A FREQUENCY OF ALL 
   FOR ALL APPLICABLE ENTITIES

 WRITE RSOL ITEMS TO THE DATABASE WITH A FREQUENCY OF ALL 
   FOR ALL APPLICABLE ENTITIES

 WRITE FFLU ITEMS TO THE DATABASE WITH A FREQUENCY OF ALL 
   FOR ALL APPLICABLE ENTITIES

 WRITE MISC ITEMS TO THE DATABASE WITH A FREQUENCY OF ALL 
   FOR THE ENTITIES DEFINED BY COMPONENT _ELMISC 

 CONVERGENCE ON HEAT BASED ON THE NORM OF THE N-R LOAD
   WITH A TOLERANCE OF 0.1000E-02 AND A MINIMUM REFERENCE VALUE OF  10.00    
   USING THE L2 NORM (CHECK THE SRSS VALUE)

 *****  ANSYS SOLVE    COMMAND  *****

 *** NOTE ***                            CP =      45.630   TIME= 11:47:10
 This nonlinear analysis defaults to using the full Newton-Raphson       
 solution procedure.  This can be modified using the NROPT command.      

 *** ANSYS - ENGINEERING ANALYSIS SYSTEM  RELEASE Release 19.2     19.2     ***
 DISTRIBUTED ANSYS Academic Teaching Introductory              

 01055371  VERSION=WINDOWS x64   11:47:10  JAN 29, 2019 CP=     45.708

 unsaved_project--Transient Thermal (B5)                                       



                      L O A D   S T E P   O P T I O N S

   LOAD STEP NUMBER. . . . . . . . . . . . . . . .     6
   TIME AT END OF THE LOAD STEP. . . . . . . . . .  6.0000    
   AUTOMATIC TIME STEPPING . . . . . . . . . . . .    ON
      INITIAL NUMBER OF SUBSTEPS . . . . . . . . .   100
      MAXIMUM NUMBER OF SUBSTEPS . . . . . . . . .  1000
      MINIMUM NUMBER OF SUBSTEPS . . . . . . . . .    10
   MAXIMUM NUMBER OF EQUILIBRIUM ITERATIONS. . . .    15
   STEP CHANGE BOUNDARY CONDITIONS . . . . . . . .   YES
   TRANSIENT (INERTIA) EFFECTS
      THERMAL DOFS . . . . . . . . . . . . . . . .    ON
   TRANSIENT INTEGRATION PARAMETERS
      THETA. . . . . . . . . . . . . . . . . . . .  1.0000    
      OSCILLATION LIMIT CRITERION. . . . . . . . . 0.50000    
      TOLERANCE. . . . . . . . . . . . . . . . . .  0.0000    
   TERMINATE ANALYSIS IF NOT CONVERGED . . . . . .YES (EXIT)  
   CONVERGENCE CONTROLS
      LABEL   REFERENCE    TOLERANCE  NORM     MINREF
       HEAT    0.000       0.1000E-02   2      10.00    
   PRINT OUTPUT CONTROLS . . . . . . . . . . . . .NO PRINTOUT
   DATABASE OUTPUT CONTROLS
      ITEM     FREQUENCY   COMPONENT
       ALL       NONE               
      NSOL        ALL               
      RSOL        ALL               
      FFLU        ALL               
      MISC        ALL       _ELMISC 


 SOLUTION MONITORING INFO IS WRITTEN TO FILE= file.mntr                                                                                                                                                                                                                                                           

     HT FLOW CONVERGENCE VALUE=  0.4474E+07  CRITERION=  0.8679E+05
    EQUIL ITER   1 COMPLETED.  NEW TRIANG MATRIX.  MAX DOF INC=  0.9201E-03
     HT FLOW CONVERGENCE VALUE=  0.3984E-01  CRITERION=  0.8680E+05 <<< CONVERGED
    >>> SOLUTION CONVERGED AFTER EQUILIBRIUM ITERATION   1
 *** LOAD STEP     6   SUBSTEP     1  COMPLETED.    CUM ITER =     56
 *** TIME =   5.01000         TIME INC =  0.100000E-01
 *** RESPONSE EIGENVALUE = 0.4835E-03   OSCILLATION LIMIT = 0.4835E-05
 *** AUTO STEP TIME:  NEXT TIME INC = 0.10000E-01  UNCHANGED

     HT FLOW CONVERGENCE VALUE=  0.4474E+07  CRITERION=  0.8679E+05
    EQUIL ITER   1 COMPLETED.  NEW TRIANG MATRIX.  MAX DOF INC=  0.9201E-03
     HT FLOW CONVERGENCE VALUE=  0.3984E-01  CRITERION=  0.8680E+05 <<< CONVERGED
    >>> SOLUTION CONVERGED AFTER EQUILIBRIUM ITERATION   1
 *** LOAD STEP     6   SUBSTEP     2  COMPLETED.    CUM ITER =     57
 *** TIME =   5.02000         TIME INC =  0.100000E-01
 *** RESPONSE EIGENVALUE = 0.4835E-03   OSCILLATION LIMIT = 0.4835E-05
 *** AUTO TIME STEP:  NEXT TIME INC = 0.30000E-01  INCREASED (FACTOR = 3.0000)

     HT FLOW CONVERGENCE VALUE=  0.4474E+07  CRITERION=  0.8679E+05
    EQUIL ITER   1 COMPLETED.  NEW TRIANG MATRIX.  MAX DOF INC=  0.2760E-02
     HT FLOW CONVERGENCE VALUE=  0.1189      CRITERION=  0.8680E+05 <<< CONVERGED
    >>> SOLUTION CONVERGED AFTER EQUILIBRIUM ITERATION   1
 *** LOAD STEP     6   SUBSTEP     3  COMPLETED.    CUM ITER =     58
 *** TIME =   5.05000         TIME INC =  0.300000E-01
 *** RESPONSE EIGENVALUE = 0.4835E-03   OSCILLATION LIMIT = 0.1451E-04
 *** AUTO TIME STEP:  NEXT TIME INC = 0.90000E-01  INCREASED (FACTOR = 3.0000)

     HT FLOW CONVERGENCE VALUE=  0.4474E+07  CRITERION=  0.8679E+05
    EQUIL ITER   1 COMPLETED.  NEW TRIANG MATRIX.  MAX DOF INC=  0.8280E-02
     HT FLOW CONVERGENCE VALUE=  0.3511      CRITERION=  0.8681E+05 <<< CONVERGED
    >>> SOLUTION CONVERGED AFTER EQUILIBRIUM ITERATION   1
 *** LOAD STEP     6   SUBSTEP     4  COMPLETED.    CUM ITER =     59
 *** TIME =   5.14000         TIME INC =  0.900000E-01
 *** RESPONSE EIGENVALUE = 0.4836E-03   OSCILLATION LIMIT = 0.4352E-04
 *** AUTO TIME STEP:  NEXT TIME INC = 0.10000      INCREASED (FACTOR = 1.1111)

     HT FLOW CONVERGENCE VALUE=  0.4474E+07  CRITERION=  0.8680E+05
    EQUIL ITER   1 COMPLETED.  NEW TRIANG MATRIX.  MAX DOF INC=  0.9200E-02
     HT FLOW CONVERGENCE VALUE=  0.3891      CRITERION=  0.8682E+05 <<< CONVERGED
    >>> SOLUTION CONVERGED AFTER EQUILIBRIUM ITERATION   1
 *** LOAD STEP     6   SUBSTEP     5  COMPLETED.    CUM ITER =     60
 *** TIME =   5.24000         TIME INC =  0.100000    
 *** RESPONSE EIGENVALUE = 0.4836E-03   OSCILLATION LIMIT = 0.4836E-04
 *** AUTO STEP TIME:  NEXT TIME INC = 0.10000      UNCHANGED

     HT FLOW CONVERGENCE VALUE=  0.4474E+07  CRITERION=  0.8681E+05
    EQUIL ITER   1 COMPLETED.  NEW TRIANG MATRIX.  MAX DOF INC=  0.9200E-02
     HT FLOW CONVERGENCE VALUE=  0.3891      CRITERION=  0.8684E+05 <<< CONVERGED
    >>> SOLUTION CONVERGED AFTER EQUILIBRIUM ITERATION   1
 *** LOAD STEP     6   SUBSTEP     6  COMPLETED.    CUM ITER =     61
 *** TIME =   5.34000         TIME INC =  0.100000    
 *** RESPONSE EIGENVALUE = 0.4837E-03   OSCILLATION LIMIT = 0.4837E-04
 *** AUTO STEP TIME:  NEXT TIME INC = 0.10000      UNCHANGED

     HT FLOW CONVERGENCE VALUE=  0.4474E+07  CRITERION=  0.8683E+05
    EQUIL ITER   1 COMPLETED.  NEW TRIANG MATRIX.  MAX DOF INC=  0.9199E-02
     HT FLOW CONVERGENCE VALUE=  0.3891      CRITERION=  0.8685E+05 <<< CONVERGED
    >>> SOLUTION CONVERGED AFTER EQUILIBRIUM ITERATION   1
 *** LOAD STEP     6   SUBSTEP     7  COMPLETED.    CUM ITER =     62
 *** TIME =   5.44000         TIME INC =  0.100000    
 *** RESPONSE EIGENVALUE = 0.4837E-03   OSCILLATION LIMIT = 0.4837E-04
 *** AUTO STEP TIME:  NEXT TIME INC = 0.10000      UNCHANGED

     HT FLOW CONVERGENCE VALUE=  0.4473E+07  CRITERION=  0.8684E+05
    EQUIL ITER   1 COMPLETED.  NEW TRIANG MATRIX.  MAX DOF INC=  0.9199E-02
     HT FLOW CONVERGENCE VALUE=  0.3891      CRITERION=  0.8686E+05 <<< CONVERGED
    >>> SOLUTION CONVERGED AFTER EQUILIBRIUM ITERATION   1
 *** LOAD STEP     6   SUBSTEP     8  COMPLETED.    CUM ITER =     63
 *** TIME =   5.54000         TIME INC =  0.100000    
 *** RESPONSE EIGENVALUE = 0.4838E-03   OSCILLATION LIMIT = 0.4838E-04
 *** AUTO STEP TIME:  NEXT TIME INC = 0.10000      UNCHANGED

     HT FLOW CONVERGENCE VALUE=  0.4473E+07  CRITERION=  0.8685E+05
    EQUIL ITER   1 COMPLETED.  NEW TRIANG MATRIX.  MAX DOF INC=  0.9198E-02
     HT FLOW CONVERGENCE VALUE=  0.3891      CRITERION=  0.8687E+05 <<< CONVERGED
    >>> SOLUTION CONVERGED AFTER EQUILIBRIUM ITERATION   1
 *** LOAD STEP     6   SUBSTEP     9  COMPLETED.    CUM ITER =     64
 *** TIME =   5.64000         TIME INC =  0.100000    
 *** RESPONSE EIGENVALUE = 0.4838E-03   OSCILLATION LIMIT = 0.4838E-04
 *** AUTO STEP TIME:  NEXT TIME INC = 0.10000      UNCHANGED

     HT FLOW CONVERGENCE VALUE=  0.4473E+07  CRITERION=  0.8686E+05
    EQUIL ITER   1 COMPLETED.  NEW TRIANG MATRIX.  MAX DOF INC=  0.9198E-02
     HT FLOW CONVERGENCE VALUE=  0.3891      CRITERION=  0.8688E+05 <<< CONVERGED
    >>> SOLUTION CONVERGED AFTER EQUILIBRIUM ITERATION   1
 *** LOAD STEP     6   SUBSTEP    10  COMPLETED.    CUM ITER =     65
 *** TIME =   5.74000         TIME INC =  0.100000    
 *** RESPONSE EIGENVALUE = 0.4839E-03   OSCILLATION LIMIT = 0.4839E-04
 *** AUTO STEP TIME:  NEXT TIME INC = 0.10000      UNCHANGED

     HT FLOW CONVERGENCE VALUE=  0.4473E+07  CRITERION=  0.8687E+05
    EQUIL ITER   1 COMPLETED.  NEW TRIANG MATRIX.  MAX DOF INC=  0.9197E-02
     HT FLOW CONVERGENCE VALUE=  0.3891      CRITERION=  0.8689E+05 <<< CONVERGED
    >>> SOLUTION CONVERGED AFTER EQUILIBRIUM ITERATION   1
 *** LOAD STEP     6   SUBSTEP    11  COMPLETED.    CUM ITER =     66
 *** TIME =   5.84000         TIME INC =  0.100000    
 *** RESPONSE EIGENVALUE = 0.4839E-03   OSCILLATION LIMIT = 0.4839E-04
 *** AUTO STEP TIME:  NEXT TIME INC = 0.10000      UNCHANGED

     HT FLOW CONVERGENCE VALUE=  0.4472E+07  CRITERION=  0.8688E+05
    EQUIL ITER   1 COMPLETED.  NEW TRIANG MATRIX.  MAX DOF INC=  0.9197E-02
     HT FLOW CONVERGENCE VALUE=  0.3891      CRITERION=  0.8690E+05 <<< CONVERGED
    >>> SOLUTION CONVERGED AFTER EQUILIBRIUM ITERATION   1
 *** LOAD STEP     6   SUBSTEP    12  COMPLETED.    CUM ITER =     67
 *** TIME =   5.94000         TIME INC =  0.100000    
 *** RESPONSE EIGENVALUE = 0.4839E-03   OSCILLATION LIMIT = 0.4839E-04
 *** AUTO TIME STEP:  NEXT TIME INC = 0.60000E-01  DECREASED (FACTOR = 0.6000)

     HT FLOW CONVERGENCE VALUE=  0.4472E+07  CRITERION=  0.8689E+05
    EQUIL ITER   1 COMPLETED.  NEW TRIANG MATRIX.  MAX DOF INC=  0.5518E-02
     HT FLOW CONVERGENCE VALUE=  0.2360      CRITERION=  0.8691E+05 <<< CONVERGED
    >>> SOLUTION CONVERGED AFTER EQUILIBRIUM ITERATION   1
 *** LOAD STEP     6   SUBSTEP    13  COMPLETED.    CUM ITER =     68
 *** TIME =   6.00000         TIME INC =  0.600000E-01
 *** RESPONSE EIGENVALUE = 0.4840E-03   OSCILLATION LIMIT = 0.2904E-04
 ****************************************************
 *************** FINISHED SOLVE FOR LS 6 *************
 ****************************************************
 ******************* SOLVE FOR LS 7 OF 300 ****************

 USE AUTOMATIC TIME STEPPING THIS LOAD STEP

 USE     100 SUBSTEPS INITIALLY THIS LOAD STEP FOR ALL  DEGREES OF FREEDOM
 FOR AUTOMATIC TIME STEPPING:
   USE   1000 SUBSTEPS AS A MAXIMUM
   USE     10 SUBSTEPS AS A MINIMUM

 TIME=  7.0000    

 INCLUDE TRANSIENT EFFECTS FOR  ALL DEGREES OF FREEDOM THIS LOAD STEP

 ERASE THE CURRENT DATABASE OUTPUT CONTROL TABLE.


 WRITE ALL  ITEMS TO THE DATABASE WITH A FREQUENCY OF NONE
   FOR ALL APPLICABLE ENTITIES

 WRITE NSOL ITEMS TO THE DATABASE WITH A FREQUENCY OF ALL 
   FOR ALL APPLICABLE ENTITIES

 WRITE RSOL ITEMS TO THE DATABASE WITH A FREQUENCY OF ALL 
   FOR ALL APPLICABLE ENTITIES

 WRITE FFLU ITEMS TO THE DATABASE WITH A FREQUENCY OF ALL 
   FOR ALL APPLICABLE ENTITIES

 WRITE MISC ITEMS TO THE DATABASE WITH A FREQUENCY OF ALL 
   FOR THE ENTITIES DEFINED BY COMPONENT _ELMISC 

 CONVERGENCE ON HEAT BASED ON THE NORM OF THE N-R LOAD
   WITH A TOLERANCE OF 0.1000E-02 AND A MINIMUM REFERENCE VALUE OF  10.00    
   USING THE L2 NORM (CHECK THE SRSS VALUE)

 *****  ANSYS SOLVE    COMMAND  *****

 *** NOTE ***                            CP =      55.848   TIME= 11:47:20
 This nonlinear analysis defaults to using the full Newton-Raphson       
 solution procedure.  This can be modified using the NROPT command.      

 *** ANSYS - ENGINEERING ANALYSIS SYSTEM  RELEASE Release 19.2     19.2     ***
 DISTRIBUTED ANSYS Academic Teaching Introductory              

 01055371  VERSION=WINDOWS x64   11:47:20  JAN 29, 2019 CP=     55.926

 unsaved_project--Transient Thermal (B5)                                       



                      L O A D   S T E P   O P T I O N S

   LOAD STEP NUMBER. . . . . . . . . . . . . . . .     7
   TIME AT END OF THE LOAD STEP. . . . . . . . . .  7.0000    
   AUTOMATIC TIME STEPPING . . . . . . . . . . . .    ON
      INITIAL NUMBER OF SUBSTEPS . . . . . . . . .   100
      MAXIMUM NUMBER OF SUBSTEPS . . . . . . . . .  1000
      MINIMUM NUMBER OF SUBSTEPS . . . . . . . . .    10
   MAXIMUM NUMBER OF EQUILIBRIUM ITERATIONS. . . .    15
   STEP CHANGE BOUNDARY CONDITIONS . . . . . . . .   YES
   TRANSIENT (INERTIA) EFFECTS
      THERMAL DOFS . . . . . . . . . . . . . . . .    ON
   TRANSIENT INTEGRATION PARAMETERS
      THETA. . . . . . . . . . . . . . . . . . . .  1.0000    
      OSCILLATION LIMIT CRITERION. . . . . . . . . 0.50000    
      TOLERANCE. . . . . . . . . . . . . . . . . .  0.0000    
   TERMINATE ANALYSIS IF NOT CONVERGED . . . . . .YES (EXIT)  
   CONVERGENCE CONTROLS
      LABEL   REFERENCE    TOLERANCE  NORM     MINREF
       HEAT    0.000       0.1000E-02   2      10.00    
   PRINT OUTPUT CONTROLS . . . . . . . . . . . . .NO PRINTOUT
   DATABASE OUTPUT CONTROLS
      ITEM     FREQUENCY   COMPONENT
       ALL       NONE               
      NSOL        ALL               
      RSOL        ALL               
      FFLU        ALL               
      MISC        ALL       _ELMISC 


 SOLUTION MONITORING INFO IS WRITTEN TO FILE= file.mntr                                                                                                                                                                                                                                                           

     HT FLOW CONVERGENCE VALUE=  0.4472E+07  CRITERION=  0.8690E+05
    EQUIL ITER   1 COMPLETED.  NEW TRIANG MATRIX.  MAX DOF INC=  0.9197E-03
     HT FLOW CONVERGENCE VALUE=  0.3985E-01  CRITERION=  0.8691E+05 <<< CONVERGED
    >>> SOLUTION CONVERGED AFTER EQUILIBRIUM ITERATION   1
 *** LOAD STEP     7   SUBSTEP     1  COMPLETED.    CUM ITER =     69
 *** TIME =   6.01000         TIME INC =  0.100000E-01
 *** RESPONSE EIGENVALUE = 0.4840E-03   OSCILLATION LIMIT = 0.4840E-05
 *** AUTO STEP TIME:  NEXT TIME INC = 0.10000E-01  UNCHANGED

     HT FLOW CONVERGENCE VALUE=  0.4472E+07  CRITERION=  0.8690E+05
    EQUIL ITER   1 COMPLETED.  NEW TRIANG MATRIX.  MAX DOF INC=  0.9197E-03
     HT FLOW CONVERGENCE VALUE=  0.3985E-01  CRITERION=  0.8691E+05 <<< CONVERGED
    >>> SOLUTION CONVERGED AFTER EQUILIBRIUM ITERATION   1
 *** LOAD STEP     7   SUBSTEP     2  COMPLETED.    CUM ITER =     70
 *** TIME =   6.02000         TIME INC =  0.100000E-01
 *** RESPONSE EIGENVALUE = 0.4840E-03   OSCILLATION LIMIT = 0.4840E-05
 *** AUTO TIME STEP:  NEXT TIME INC = 0.30000E-01  INCREASED (FACTOR = 3.0000)

     HT FLOW CONVERGENCE VALUE=  0.4472E+07  CRITERION=  0.8690E+05
    EQUIL ITER   1 COMPLETED.  NEW TRIANG MATRIX.  MAX DOF INC=  0.2759E-02
     HT FLOW CONVERGENCE VALUE=  0.1189      CRITERION=  0.8691E+05 <<< CONVERGED
    >>> SOLUTION CONVERGED AFTER EQUILIBRIUM ITERATION   1
 *** LOAD STEP     7   SUBSTEP     3  COMPLETED.    CUM ITER =     71
 *** TIME =   6.05000         TIME INC =  0.300000E-01
 *** RESPONSE EIGENVALUE = 0.4840E-03   OSCILLATION LIMIT = 0.1452E-04
 *** AUTO TIME STEP:  NEXT TIME INC = 0.90000E-01  INCREASED (FACTOR = 3.0000)

     HT FLOW CONVERGENCE VALUE=  0.4472E+07  CRITERION=  0.8690E+05
    EQUIL ITER   1 COMPLETED.  NEW TRIANG MATRIX.  MAX DOF INC=  0.8276E-02
     HT FLOW CONVERGENCE VALUE=  0.3512      CRITERION=  0.8692E+05 <<< CONVERGED
    >>> SOLUTION CONVERGED AFTER EQUILIBRIUM ITERATION   1
 *** LOAD STEP     7   SUBSTEP     4  COMPLETED.    CUM ITER =     72
 *** TIME =   6.14000         TIME INC =  0.900000E-01
 *** RESPONSE EIGENVALUE = 0.4840E-03   OSCILLATION LIMIT = 0.4356E-04
 *** AUTO TIME STEP:  NEXT TIME INC = 0.10000      INCREASED (FACTOR = 1.1111)

     HT FLOW CONVERGENCE VALUE=  0.4472E+07  CRITERION=  0.8691E+05
    EQUIL ITER   1 COMPLETED.  NEW TRIANG MATRIX.  MAX DOF INC=  0.9196E-02
     HT FLOW CONVERGENCE VALUE=  0.3892      CRITERION=  0.8693E+05 <<< CONVERGED
    >>> SOLUTION CONVERGED AFTER EQUILIBRIUM ITERATION   1
 *** LOAD STEP     7   SUBSTEP     5  COMPLETED.    CUM ITER =     73
 *** TIME =   6.24000         TIME INC =  0.100000    
 *** RESPONSE EIGENVALUE = 0.4841E-03   OSCILLATION LIMIT = 0.4841E-04
 *** AUTO STEP TIME:  NEXT TIME INC = 0.10000      UNCHANGED

     HT FLOW CONVERGENCE VALUE=  0.4472E+07  CRITERION=  0.8692E+05
    EQUIL ITER   1 COMPLETED.  NEW TRIANG MATRIX.  MAX DOF INC=  0.9195E-02
     HT FLOW CONVERGENCE VALUE=  0.3892      CRITERION=  0.8694E+05 <<< CONVERGED
    >>> SOLUTION CONVERGED AFTER EQUILIBRIUM ITERATION   1
 *** LOAD STEP     7   SUBSTEP     6  COMPLETED.    CUM ITER =     74
 *** TIME =   6.34000         TIME INC =  0.100000    
 *** RESPONSE EIGENVALUE = 0.4841E-03   OSCILLATION LIMIT = 0.4841E-04
 *** AUTO STEP TIME:  NEXT TIME INC = 0.10000      UNCHANGED

     HT FLOW CONVERGENCE VALUE=  0.4471E+07  CRITERION=  0.8693E+05
    EQUIL ITER   1 COMPLETED.  NEW TRIANG MATRIX.  MAX DOF INC=  0.9195E-02
     HT FLOW CONVERGENCE VALUE=  0.3892      CRITERION=  0.8695E+05 <<< CONVERGED
    >>> SOLUTION CONVERGED AFTER EQUILIBRIUM ITERATION   1
 *** LOAD STEP     7   SUBSTEP     7  COMPLETED.    CUM ITER =     75
 *** TIME =   6.44000         TIME INC =  0.100000    
 *** RESPONSE EIGENVALUE = 0.4842E-03   OSCILLATION LIMIT = 0.4842E-04
 *** AUTO STEP TIME:  NEXT TIME INC = 0.10000      UNCHANGED

     HT FLOW CONVERGENCE VALUE=  0.4471E+07  CRITERION=  0.8694E+05
[...]
     HT FLOW CONVERGENCE VALUE=  0.3909      CRITERION=  0.9053E+05 <<< CONVERGED
    >>> SOLUTION CONVERGED AFTER EQUILIBRIUM ITERATION   1
 *** LOAD STEP    40   SUBSTEP     7  COMPLETED.    CUM ITER =    504
 *** TIME =   39.4400         TIME INC =  0.100000    
 *** RESPONSE EIGENVALUE = 0.4991E-03   OSCILLATION LIMIT = 0.4991E-04
 *** AUTO STEP TIME:  NEXT TIME INC = 0.10000      UNCHANGED

     HT FLOW CONVERGENCE VALUE=  0.4399E+07  CRITERION=  0.9052E+05
    EQUIL ITER   1 COMPLETED.  NEW TRIANG MATRIX.  MAX DOF INC=  0.9047E-02
     HT FLOW CONVERGENCE VALUE=  0.3909      CRITERION=  0.9054E+05 <<< CONVERGED
    >>> SOLUTION CONVERGED AFTER EQUILIBRIUM ITERATION   1
 *** LOAD STEP    40   SUBSTEP     8  COMPLETED.    CUM ITER =    505
 *** TIME =   39.5400         TIME INC =  0.100000    
 *** RESPONSE EIGENVALUE = 0.4991E-03   OSCILLATION LIMIT = 0.4991E-04
 *** AUTO STEP TIME:  NEXT TIME INC = 0.10000      UNCHANGED

     HT FLOW CONVERGENCE VALUE=  0.4399E+07  CRITERION=  0.9053E+05
    EQUIL ITER   1 COMPLETED.  NEW TRIANG MATRIX.  MAX DOF INC=  0.9046E-02
     HT FLOW CONVERGENCE VALUE=  0.3909      CRITERION=  0.9055E+05 <<< CONVERGED
    >>> SOLUTION CONVERGED AFTER EQUILIBRIUM ITERATION   1
 *** LOAD STEP    40   SUBSTEP     9  COMPLETED.    CUM ITER =    506
 *** TIME =   39.6400         TIME INC =  0.100000    
 *** RESPONSE EIGENVALUE = 0.4992E-03   OSCILLATION LIMIT = 0.4992E-04
 *** AUTO STEP TIME:  NEXT TIME INC = 0.10000      UNCHANGED

     HT FLOW CONVERGENCE VALUE=  0.4399E+07  CRITERION=  0.9054E+05
    EQUIL ITER   1 COMPLETED.  NEW TRIANG MATRIX.  MAX DOF INC=  0.9046E-02
     HT FLOW CONVERGENCE VALUE=  0.3909      CRITERION=  0.9056E+05 <<< CONVERGED
    >>> SOLUTION CONVERGED AFTER EQUILIBRIUM ITERATION   1
 *** LOAD STEP    40   SUBSTEP    10  COMPLETED.    CUM ITER =    507
 *** TIME =   39.7400         TIME INC =  0.100000    
 *** RESPONSE EIGENVALUE = 0.4992E-03   OSCILLATION LIMIT = 0.4992E-04
 *** AUTO STEP TIME:  NEXT TIME INC = 0.10000      UNCHANGED

     HT FLOW CONVERGENCE VALUE=  0.4399E+07  CRITERION=  0.9055E+05
    EQUIL ITER   1 COMPLETED.  NEW TRIANG MATRIX.  MAX DOF INC=  0.9045E-02
     HT FLOW CONVERGENCE VALUE=  0.3909      CRITERION=  0.9057E+05 <<< CONVERGED
    >>> SOLUTION CONVERGED AFTER EQUILIBRIUM ITERATION   1
 *** LOAD STEP    40   SUBSTEP    11  COMPLETED.    CUM ITER =    508
 *** TIME =   39.8400         TIME INC =  0.100000    
 *** RESPONSE EIGENVALUE = 0.4993E-03   OSCILLATION LIMIT = 0.4993E-04
 *** AUTO STEP TIME:  NEXT TIME INC = 0.10000      UNCHANGED

     HT FLOW CONVERGENCE VALUE=  0.4398E+07  CRITERION=  0.9056E+05
    EQUIL ITER   1 COMPLETED.  NEW TRIANG MATRIX.  MAX DOF INC=  0.9045E-02
     HT FLOW CONVERGENCE VALUE=  0.3910      CRITERION=  0.9058E+05 <<< CONVERGED
    >>> SOLUTION CONVERGED AFTER EQUILIBRIUM ITERATION   1
 *** LOAD STEP    40   SUBSTEP    12  COMPLETED.    CUM ITER =    509
 *** TIME =   39.9400         TIME INC =  0.100000    
 *** RESPONSE EIGENVALUE = 0.4993E-03   OSCILLATION LIMIT = 0.4993E-04
 *** AUTO TIME STEP:  NEXT TIME INC = 0.60000E-01  DECREASED (FACTOR = 0.6000)

     HT FLOW CONVERGENCE VALUE=  0.4398E+07  CRITERION=  0.9058E+05
    EQUIL ITER   1 COMPLETED.  NEW TRIANG MATRIX.  MAX DOF INC=  0.5427E-02
     HT FLOW CONVERGENCE VALUE=  0.2370      CRITERION=  0.9059E+05 <<< CONVERGED
    >>> SOLUTION CONVERGED AFTER EQUILIBRIUM ITERATION   1
 *** LOAD STEP    40   SUBSTEP    13  COMPLETED.    CUM ITER =    510
 *** TIME =   40.0000         TIME INC =  0.600000E-01
 *** RESPONSE EIGENVALUE = 0.4993E-03   OSCILLATION LIMIT = 0.2996E-04
 ****************************************************
 *************** FINISHED SOLVE FOR LS 40 *************
 ****************************************************
 ******************* SOLVE FOR LS 41 OF 300 ****************

 USE AUTOMATIC TIME STEPPING THIS LOAD STEP

 USE     100 SUBSTEPS INITIALLY THIS LOAD STEP FOR ALL  DEGREES OF FREEDOM
 FOR AUTOMATIC TIME STEPPING:
   USE   1000 SUBSTEPS AS A MAXIMUM
   USE     10 SUBSTEPS AS A MINIMUM

 TIME=  41.000    

 INCLUDE TRANSIENT EFFECTS FOR  ALL DEGREES OF FREEDOM THIS LOAD STEP

 ERASE THE CURRENT DATABASE OUTPUT CONTROL TABLE.


 WRITE ALL  ITEMS TO THE DATABASE WITH A FREQUENCY OF NONE
   FOR ALL APPLICABLE ENTITIES

 WRITE NSOL ITEMS TO THE DATABASE WITH A FREQUENCY OF ALL 
   FOR ALL APPLICABLE ENTITIES

 WRITE RSOL ITEMS TO THE DATABASE WITH A FREQUENCY OF ALL 
   FOR ALL APPLICABLE ENTITIES

 WRITE FFLU ITEMS TO THE DATABASE WITH A FREQUENCY OF ALL 
   FOR ALL APPLICABLE ENTITIES

 WRITE MISC ITEMS TO THE DATABASE WITH A FREQUENCY OF ALL 
   FOR THE ENTITIES DEFINED BY COMPONENT _ELMISC 

 CONVERGENCE ON HEAT BASED ON THE NORM OF THE N-R LOAD
   WITH A TOLERANCE OF 0.1000E-02 AND A MINIMUM REFERENCE VALUE OF  10.00    
   USING THE L2 NORM (CHECK THE SRSS VALUE)

 *****  ANSYS SOLVE    COMMAND  *****

 *** NOTE ***                            CP =     424.151   TIME= 11:53:30
 This nonlinear analysis defaults to using the full Newton-Raphson       
 solution procedure.  This can be modified using the NROPT command.      

 *** ANSYS - ENGINEERING ANALYSIS SYSTEM  RELEASE Release 19.2     19.2     ***
 DISTRIBUTED ANSYS Academic Teaching Introductory              

 01055371  VERSION=WINDOWS x64   11:53:30  JAN 29, 2019 CP=    424.229

 unsaved_project--Transient Thermal (B5)                                       



                      L O A D   S T E P   O P T I O N S

   LOAD STEP NUMBER. . . . . . . . . . . . . . . .    41
   TIME AT END OF THE LOAD STEP. . . . . . . . . .  41.000    
   AUTOMATIC TIME STEPPING . . . . . . . . . . . .    ON
      INITIAL NUMBER OF SUBSTEPS . . . . . . . . .   100
      MAXIMUM NUMBER OF SUBSTEPS . . . . . . . . .  1000
      MINIMUM NUMBER OF SUBSTEPS . . . . . . . . .    10
   MAXIMUM NUMBER OF EQUILIBRIUM ITERATIONS. . . .    15
   STEP CHANGE BOUNDARY CONDITIONS . . . . . . . .   YES
   TRANSIENT (INERTIA) EFFECTS
      THERMAL DOFS . . . . . . . . . . . . . . . .    ON
   TRANSIENT INTEGRATION PARAMETERS
      THETA. . . . . . . . . . . . . . . . . . . .  1.0000    
      OSCILLATION LIMIT CRITERION. . . . . . . . . 0.50000    
      TOLERANCE. . . . . . . . . . . . . . . . . .  0.0000    
   TERMINATE ANALYSIS IF NOT CONVERGED . . . . . .YES (EXIT)  
   CONVERGENCE CONTROLS
      LABEL   REFERENCE    TOLERANCE  NORM     MINREF
       HEAT    0.000       0.1000E-02   2      10.00    
   PRINT OUTPUT CONTROLS . . . . . . . . . . . . .NO PRINTOUT
   DATABASE OUTPUT CONTROLS
      ITEM     FREQUENCY   COMPONENT
       ALL       NONE               
      NSOL        ALL               
      RSOL        ALL               
      FFLU        ALL               
      MISC        ALL       _ELMISC 


 SOLUTION MONITORING INFO IS WRITTEN TO FILE= file.mntr                                                                                                                                                                                                                                                           

     HT FLOW CONVERGENCE VALUE=  0.4398E+07  CRITERION=  0.9058E+05
    EQUIL ITER   1 COMPLETED.  NEW TRIANG MATRIX.  MAX DOF INC=  0.9044E-03
     HT FLOW CONVERGENCE VALUE=  0.4002E-01  CRITERION=  0.9059E+05 <<< CONVERGED
    >>> SOLUTION CONVERGED AFTER EQUILIBRIUM ITERATION   1
 *** LOAD STEP    41   SUBSTEP     1  COMPLETED.    CUM ITER =    511
 *** TIME =   40.0100         TIME INC =  0.100000E-01
 *** RESPONSE EIGENVALUE = 0.4994E-03   OSCILLATION LIMIT = 0.4994E-05
 *** AUTO STEP TIME:  NEXT TIME INC = 0.10000E-01  UNCHANGED

     HT FLOW CONVERGENCE VALUE=  0.4398E+07  CRITERION=  0.9058E+05
    EQUIL ITER   1 COMPLETED.  NEW TRIANG MATRIX.  MAX DOF INC=  0.9044E-03
     HT FLOW CONVERGENCE VALUE=  0.4002E-01  CRITERION=  0.9059E+05 <<< CONVERGED
    >>> SOLUTION CONVERGED AFTER EQUILIBRIUM ITERATION   1
 *** LOAD STEP    41   SUBSTEP     2  COMPLETED.    CUM ITER =    512
 *** TIME =   40.0200         TIME INC =  0.100000E-01
 *** RESPONSE EIGENVALUE = 0.4994E-03   OSCILLATION LIMIT = 0.4994E-05
 *** AUTO TIME STEP:  NEXT TIME INC = 0.30000E-01  INCREASED (FACTOR = 3.0000)

     HT FLOW CONVERGENCE VALUE=  0.4398E+07  CRITERION=  0.9058E+05
    EQUIL ITER   1 COMPLETED.  NEW TRIANG MATRIX.  MAX DOF INC=  0.2713E-02
     HT FLOW CONVERGENCE VALUE=  0.1194      CRITERION=  0.9060E+05 <<< CONVERGED
    >>> SOLUTION CONVERGED AFTER EQUILIBRIUM ITERATION   1
 *** LOAD STEP    41   SUBSTEP     3  COMPLETED.    CUM ITER =    513
 *** TIME =   40.0500         TIME INC =  0.300000E-01
 *** RESPONSE EIGENVALUE = 0.4994E-03   OSCILLATION LIMIT = 0.1498E-04
 *** AUTO TIME STEP:  NEXT TIME INC = 0.90000E-01  INCREASED (FACTOR = 3.0000)

     HT FLOW CONVERGENCE VALUE=  0.4398E+07  CRITERION=  0.9059E+05
    EQUIL ITER   1 COMPLETED.  NEW TRIANG MATRIX.  MAX DOF INC=  0.8139E-02
     HT FLOW CONVERGENCE VALUE=  0.3528      CRITERION=  0.9061E+05 <<< CONVERGED
    >>> SOLUTION CONVERGED AFTER EQUILIBRIUM ITERATION   1
 *** LOAD STEP    41   SUBSTEP     4  COMPLETED.    CUM ITER =    514
 *** TIME =   40.1400         TIME INC =  0.900000E-01
 *** RESPONSE EIGENVALUE = 0.4994E-03   OSCILLATION LIMIT = 0.4495E-04
 *** AUTO TIME STEP:  NEXT TIME INC = 0.10000      INCREASED (FACTOR = 1.1111)

     HT FLOW CONVERGENCE VALUE=  0.4398E+07  CRITERION=  0.9060E+05
    EQUIL ITER   1 COMPLETED.  NEW TRIANG MATRIX.  MAX DOF INC=  0.9043E-02
     HT FLOW CONVERGENCE VALUE=  0.3910      CRITERION=  0.9062E+05 <<< CONVERGED
    >>> SOLUTION CONVERGED AFTER EQUILIBRIUM ITERATION   1
 *** LOAD STEP    41   SUBSTEP     5  COMPLETED.    CUM ITER =    515
 *** TIME =   40.2400         TIME INC =  0.100000    
 *** RESPONSE EIGENVALUE = 0.4995E-03   OSCILLATION LIMIT = 0.4995E-04
 *** AUTO STEP TIME:  NEXT TIME INC = 0.10000      UNCHANGED

     HT FLOW CONVERGENCE VALUE=  0.4398E+07  CRITERION=  0.9061E+05
    EQUIL ITER   1 COMPLETED.  NEW TRIANG MATRIX.  MAX DOF INC=  0.9043E-02
     HT FLOW CONVERGENCE VALUE=  0.3910      CRITERION=  0.9063E+05 <<< CONVERGED
    >>> SOLUTION CONVERGED AFTER EQUILIBRIUM ITERATION   1
 *** LOAD STEP    41   SUBSTEP     6  COMPLETED.    CUM ITER =    516
 *** TIME =   40.3400         TIME INC =  0.100000    
 *** RESPONSE EIGENVALUE = 0.4995E-03   OSCILLATION LIMIT = 0.4995E-04
 *** AUTO STEP TIME:  NEXT TIME INC = 0.10000      UNCHANGED

     HT FLOW CONVERGENCE VALUE=  0.4397E+07  CRITERION=  0.9062E+05
    EQUIL ITER   1 COMPLETED.  NEW TRIANG MATRIX.  MAX DOF INC=  0.9043E-02
     HT FLOW CONVERGENCE VALUE=  0.3910      CRITERION=  0.9064E+05 <<< CONVERGED
    >>> SOLUTION CONVERGED AFTER EQUILIBRIUM ITERATION   1
 *** LOAD STEP    41   SUBSTEP     7  COMPLETED.    CUM ITER =    517
 *** TIME =   40.4400         TIME INC =  0.100000    
 *** RESPONSE EIGENVALUE = 0.4995E-03   OSCILLATION LIMIT = 0.4995E-04
 *** AUTO STEP TIME:  NEXT TIME INC = 0.10000      UNCHANGED

     HT FLOW CONVERGENCE VALUE=  0.4397E+07  CRITERION=  0.9063E+05
    EQUIL ITER   1 COMPLETED.  NEW TRIANG MATRIX.  MAX DOF INC=  0.9042E-02
     HT FLOW CONVERGENCE VALUE=  0.3910      CRITERION=  0.9065E+05 <<< CONVERGED
    >>> SOLUTION CONVERGED AFTER EQUILIBRIUM ITERATION   1
 *** LOAD STEP    41   SUBSTEP     8  COMPLETED.    CUM ITER =    518
 *** TIME =   40.5400         TIME INC =  0.100000    
 *** RESPONSE EIGENVALUE = 0.4996E-03   OSCILLATION LIMIT = 0.4996E-04
 *** AUTO STEP TIME:  NEXT TIME INC = 0.10000      UNCHANGED

     HT FLOW CONVERGENCE VALUE=  0.4397E+07  CRITERION=  0.9064E+05
    EQUIL ITER   1 COMPLETED.  NEW TRIANG MATRIX.  MAX DOF INC=  0.9042E-02
     HT FLOW CONVERGENCE VALUE=  0.3910      CRITERION=  0.9066E+05 <<< CONVERGED
    >>> SOLUTION CONVERGED AFTER EQUILIBRIUM ITERATION   1
 *** LOAD STEP    41   SUBSTEP     9  COMPLETED.    CUM ITER =    519
 *** TIME =   40.6400         TIME INC =  0.100000    
 *** RESPONSE EIGENVALUE = 0.4996E-03   OSCILLATION LIMIT = 0.4996E-04
 *** AUTO STEP TIME:  NEXT TIME INC = 0.10000      UNCHANGED

     HT FLOW CONVERGENCE VALUE=  0.4397E+07  CRITERION=  0.9065E+05
    EQUIL ITER   1 COMPLETED.  NEW TRIANG MATRIX.  MAX DOF INC=  0.9041E-02
     HT FLOW CONVERGENCE VALUE=  0.3910      CRITERION=  0.9067E+05 <<< CONVERGED
    >>> SOLUTION CONVERGED AFTER EQUILIBRIUM ITERATION   1
 *** LOAD STEP    41   SUBSTEP    10  COMPLETED.    CUM ITER =    520
 *** TIME =   40.7400         TIME INC =  0.100000    
 *** RESPONSE EIGENVALUE = 0.4997E-03   OSCILLATION LIMIT = 0.4997E-04
 *** AUTO STEP TIME:  NEXT TIME INC = 0.10000      UNCHANGED

     HT FLOW CONVERGENCE VALUE=  0.4397E+07  CRITERION=  0.9066E+05
    EQUIL ITER   1 COMPLETED.  NEW TRIANG MATRIX.  MAX DOF INC=  0.9041E-02
     HT FLOW CONVERGENCE VALUE=  0.3910      CRITERION=  0.9068E+05 <<< CONVERGED
    >>> SOLUTION CONVERGED AFTER EQUILIBRIUM ITERATION   1
 *** LOAD STEP    41   SUBSTEP    11  COMPLETED.    CUM ITER =    521
 *** TIME =   40.8400         TIME INC =  0.100000    
 *** RESPONSE EIGENVALUE = 0.4997E-03   OSCILLATION LIMIT = 0.4997E-04
 *** AUTO STEP TIME:  NEXT TIME INC = 0.10000      UNCHANGED

     HT FLOW CONVERGENCE VALUE=  0.4396E+07  CRITERION=  0.9067E+05
    EQUIL ITER   1 COMPLETED.  NEW TRIANG MATRIX.  MAX DOF INC=  0.9040E-02
     HT FLOW CONVERGENCE VALUE=  0.3910      CRITERION=  0.9069E+05 <<< CONVERGED
    >>> SOLUTION CONVERGED AFTER EQUILIBRIUM ITERATION   1
 *** LOAD STEP    41   SUBSTEP    12  COMPLETED.    CUM ITER =    522
 *** TIME =   40.9400         TIME INC =  0.100000    
 *** RESPONSE EIGENVALUE = 0.4998E-03   OSCILLATION LIMIT = 0.4998E-04
 *** AUTO TIME STEP:  NEXT TIME INC = 0.60000E-01  DECREASED (FACTOR = 0.6000)

     HT FLOW CONVERGENCE VALUE=  0.4396E+07  CRITERION=  0.9069E+05
    EQUIL ITER   1 COMPLETED.  NEW TRIANG MATRIX.  MAX DOF INC=  0.5424E-02
     HT FLOW CONVERGENCE VALUE=  0.2371      CRITERION=  0.9070E+05 <<< CONVERGED
    >>> SOLUTION CONVERGED AFTER EQUILIBRIUM ITERATION   1
 *** LOAD STEP    41   SUBSTEP    13  COMPLETED.    CUM ITER =    523
 *** TIME =   41.0000         TIME INC =  0.600000E-01
 *** RESPONSE EIGENVALUE = 0.4998E-03   OSCILLATION LIMIT = 0.2999E-04
 ****************************************************
 *************** FINISHED SOLVE FOR LS 41 *************
 ****************************************************
 ******************* SOLVE FOR LS 42 OF 300 ****************

 USE AUTOMATIC TIME STEPPING THIS LOAD STEP

 USE     100 SUBSTEPS INITIALLY THIS LOAD STEP FOR ALL  DEGREES OF FREEDOM
 FOR AUTOMATIC TIME STEPPING:
   USE   1000 SUBSTEPS AS A MAXIMUM
   USE     10 SUBSTEPS AS A MINIMUM

 TIME=  42.000    

 INCLUDE TRANSIENT EFFECTS FOR  ALL DEGREES OF FREEDOM THIS LOAD STEP

 ERASE THE CURRENT DATABASE OUTPUT CONTROL TABLE.


 WRITE ALL  ITEMS TO THE DATABASE WITH A FREQUENCY OF NONE
   FOR ALL APPLICABLE ENTITIES

 WRITE NSOL ITEMS TO THE DATABASE WITH A FREQUENCY OF ALL 
   FOR ALL APPLICABLE ENTITIES

 WRITE RSOL ITEMS TO THE DATABASE WITH A FREQUENCY OF ALL 
   FOR ALL APPLICABLE ENTITIES

 WRITE FFLU ITEMS TO THE DATABASE WITH A FREQUENCY OF ALL 
   FOR ALL APPLICABLE ENTITIES

 WRITE MISC ITEMS TO THE DATABASE WITH A FREQUENCY OF ALL 
   FOR THE ENTITIES DEFINED BY COMPONENT _ELMISC 

 CONVERGENCE ON HEAT BASED ON THE NORM OF THE N-R LOAD
   WITH A TOLERANCE OF 0.1000E-02 AND A MINIMUM REFERENCE VALUE OF  10.00    
   USING THE L2 NORM (CHECK THE SRSS VALUE)

 *****  ANSYS SOLVE    COMMAND  *****

 *** NOTE ***                            CP =     435.118   TIME= 11:53:41
 This nonlinear analysis defaults to using the full Newton-Raphson       
 solution procedure.  This can be modified using the NROPT command.      

 *** ANSYS - ENGINEERING ANALYSIS SYSTEM  RELEASE Release 19.2     19.2     ***
 DISTRIBUTED ANSYS Academic Teaching Introductory              

 01055371  VERSION=WINDOWS x64   11:53:41  JAN 29, 2019 CP=    435.180

 unsaved_project--Transient Thermal (B5)                                       



                      L O A D   S T E P   O P T I O N S

   LOAD STEP NUMBER. . . . . . . . . . . . . . . .    42
   TIME AT END OF THE LOAD STEP. . . . . . . . . .  42.000    
   AUTOMATIC TIME STEPPING . . . . . . . . . . . .    ON
      INITIAL NUMBER OF SUBSTEPS . . . . . . . . .   100
      MAXIMUM NUMBER OF SUBSTEPS . . . . . . . . .  1000
      MINIMUM NUMBER OF SUBSTEPS . . . . . . . . .    10
   MAXIMUM NUMBER OF EQUILIBRIUM ITERATIONS. . . .    15
   STEP CHANGE BOUNDARY CONDITIONS . . . . . . . .   YES
   TRANSIENT (INERTIA) EFFECTS
      THERMAL DOFS . . . . . . . . . . . . . . . .    ON
   TRANSIENT INTEGRATION PARAMETERS
      THETA. . . . . . . . . . . . . . . . . . . .  1.0000    
      OSCILLATION LIMIT CRITERION. . . . . . . . . 0.50000    
      TOLERANCE. . . . . . . . . . . . . . . . . .  0.0000    
   TERMINATE ANALYSIS IF NOT CONVERGED . . . . . .YES (EXIT)  
   CONVERGENCE CONTROLS
      LABEL   REFERENCE    TOLERANCE  NORM     MINREF
       HEAT    0.000       0.1000E-02   2      10.00    
   PRINT OUTPUT CONTROLS . . . . . . . . . . . . .NO PRINTOUT
   DATABASE OUTPUT CONTROLS
      ITEM     FREQUENCY   COMPONENT
       ALL       NONE               
      NSOL        ALL               
      RSOL        ALL               
      FFLU        ALL               
      MISC        ALL       _ELMISC 


 SOLUTION MONITORING INFO IS WRITTEN TO FILE= file.mntr                                                                                                                                                                                                                                                           

     HT FLOW CONVERGENCE VALUE=  0.4396E+07  CRITERION=  0.9069E+05
    EQUIL ITER   1 COMPLETED.  NEW TRIANG MATRIX.  MAX DOF INC=  0.9040E-03
     HT FLOW CONVERGENCE VALUE=  0.4002E-01  CRITERION=  0.9070E+05 <<< CONVERGED
    >>> SOLUTION CONVERGED AFTER EQUILIBRIUM ITERATION   1
 *** LOAD STEP    42   SUBSTEP     1  COMPLETED.    CUM ITER =    524
 *** TIME =   41.0100         TIME INC =  0.100000E-01
 *** RESPONSE EIGENVALUE = 0.4998E-03   OSCILLATION LIMIT = 0.4998E-05
 *** AUTO STEP TIME:  NEXT TIME INC = 0.10000E-01  UNCHANGED

     HT FLOW CONVERGENCE VALUE=  0.4396E+07  CRITERION=  0.9069E+05
    EQUIL ITER   1 COMPLETED.  NEW TRIANG MATRIX.  MAX DOF INC=  0.9040E-03
     HT FLOW CONVERGENCE VALUE=  0.4002E-01  CRITERION=  0.9070E+05 <<< CONVERGED
    >>> SOLUTION CONVERGED AFTER EQUILIBRIUM ITERATION   1
 *** LOAD STEP    42   SUBSTEP     2  COMPLETED.    CUM ITER =    525
 *** TIME =   41.0200         TIME INC =  0.100000E-01
 *** RESPONSE EIGENVALUE = 0.4998E-03   OSCILLATION LIMIT = 0.4998E-05
 *** AUTO TIME STEP:  NEXT TIME INC = 0.30000E-01  INCREASED (FACTOR = 3.0000)

     HT FLOW CONVERGENCE VALUE=  0.4396E+07  CRITERION=  0.9069E+05
    EQUIL ITER   1 COMPLETED.  NEW TRIANG MATRIX.  MAX DOF INC=  0.2712E-02
     HT FLOW CONVERGENCE VALUE=  0.1195      CRITERION=  0.9070E+05 <<< CONVERGED
    >>> SOLUTION CONVERGED AFTER EQUILIBRIUM ITERATION   1
 *** LOAD STEP    42   SUBSTEP     3  COMPLETED.    CUM ITER =    526
 *** TIME =   41.0500         TIME INC =  0.300000E-01
 *** RESPONSE EIGENVALUE = 0.4998E-03   OSCILLATION LIMIT = 0.1499E-04
 *** AUTO TIME STEP:  NEXT TIME INC = 0.90000E-01  INCREASED (FACTOR = 3.0000)

     HT FLOW CONVERGENCE VALUE=  0.4396E+07  CRITERION=  0.9070E+05
    EQUIL ITER   1 COMPLETED.  NEW TRIANG MATRIX.  MAX DOF INC=  0.8135E-02
     HT FLOW CONVERGENCE VALUE=  0.3528      CRITERION=  0.9071E+05 <<< CONVERGED
    >>> SOLUTION CONVERGED AFTER EQUILIBRIUM ITERATION   1
 *** LOAD STEP    42   SUBSTEP     4  COMPLETED.    CUM ITER =    527
 *** TIME =   41.1400         TIME INC =  0.900000E-01
 *** RESPONSE EIGENVALUE = 0.4999E-03   OSCILLATION LIMIT = 0.4499E-04
 *** AUTO TIME STEP:  NEXT TIME INC = 0.10000      INCREASED (FACTOR = 1.1111)

     HT FLOW CONVERGENCE VALUE=  0.4396E+07  CRITERION=  0.9071E+05
    EQUIL ITER   1 COMPLETED.  NEW TRIANG MATRIX.  MAX DOF INC=  0.9039E-02
